[General]
network = tsn.TSN_Network
sim-time-limit = 1.0s

# enable multiple canvas visualizers
*.visualizer.typename = "IntegratedMultiCanvasVisualizer"

# network route activity visualization
*.visualizer.numNetworkRouteVisualizers = 1
*.visualizer.networkRouteVisualizer[*].displayRoutes = true
*.visualizer.networkRouteVisualizer[0].packetFilter = "\"ats*\""
*.visualizer.networkRouteVisualizer[0].lineColor = "red1"

*.*.eth[*].bitrate = 1Gbps

# packet processing delay
*.*.bridging.directionReverser.delayer.typename = "PacketDelayer"
*.*.bridging.directionReverser.delayer.delay = 8us

*.ES_1.numApps = 13
*.ES_2.numApps = 11
*.ES_3.numApps = 8
*.ES_4.numApps = 14
*.ES_5.numApps = 10
*.ES_6.numApps = 15
*.ES_7.numApps = 10
*.ES_8.numApps = 10
*.ES_9.numApps = 14
*.ES_10.numApps = 13
*.ES_11.numApps = 14
*.ES_12.numApps = 13
*.ES_13.numApps = 10
*.ES_14.numApps = 16
*.ES_15.numApps = 9
*.ES_16.numApps = 12
*.ES_17.numApps = 10
*.ES_18.numApps = 13
*.ES_19.numApps = 14
*.ES_20.numApps = 14
*.ES_21.numApps = 11
*.ES_22.numApps = 12
*.ES_23.numApps = 13
*.ES_24.numApps = 11
*.ES_25.numApps = 10
*.ES_26.numApps = 11
*.ES_27.numApps = 12
*.ES_28.numApps = 14
*.ES_29.numApps = 13
*.ES_30.numApps = 12
*.ES_31.numApps = 8
*.ES_32.numApps = 14
*.ES_33.numApps = 9
*.ES_34.numApps = 11
*.ES_35.numApps = 14
*.ES_36.numApps = 15
*.ES_37.numApps = 11
*.ES_38.numApps = 8
*.ES_39.numApps = 10
*.ES_40.numApps = 18
*.ES_1.app[0..5].typename = "UdpSourceApp"
*.ES_1.app[0].display-name = "ats"
*.ES_1.app[0].io.destAddress = "ES_18"
*.ES_1.app[0].io.destPort = 1
*.ES_1.app[0].source.productionInterval = 2000us
*.ES_1.app[0].source.initialProductionOffset = 2000us
*.ES_1.app[0].source.packetLength = 560B
*.ES_1.app[1].display-name = "ats"
*.ES_1.app[1].io.destAddress = "ES_16"
*.ES_1.app[1].io.destPort = 2
*.ES_1.app[1].source.productionInterval = 2000us
*.ES_1.app[1].source.initialProductionOffset = 2000us
*.ES_1.app[1].source.packetLength = 742B
*.ES_1.app[2].display-name = "ats"
*.ES_1.app[2].io.destAddress = "ES_9"
*.ES_1.app[2].io.destPort = 3
*.ES_1.app[2].source.productionInterval = 2000us
*.ES_1.app[2].source.initialProductionOffset = 2000us
*.ES_1.app[2].source.packetLength = 725B
*.ES_1.app[3].display-name = "ats"
*.ES_1.app[3].io.destAddress = "ES_24"
*.ES_1.app[3].io.destPort = 4
*.ES_1.app[3].source.productionInterval = 1500us
*.ES_1.app[3].source.initialProductionOffset = 1500us
*.ES_1.app[3].source.packetLength = 537B
*.ES_1.app[4].display-name = "ats"
*.ES_1.app[4].io.destAddress = "ES_36"
*.ES_1.app[4].io.destPort = 5
*.ES_1.app[4].source.productionInterval = 1500us
*.ES_1.app[4].source.initialProductionOffset = 1500us
*.ES_1.app[4].source.packetLength = 747B
*.ES_1.app[5].display-name = "ats"
*.ES_1.app[5].io.destAddress = "ES_37"
*.ES_1.app[5].io.destPort = 6
*.ES_1.app[5].source.productionInterval = 2000us
*.ES_1.app[5].source.initialProductionOffset = 2000us
*.ES_1.app[5].source.packetLength = 773B
*.ES_1.app[6..12].typename = "UdpSinkApp"
*.ES_1.app[6].io.localPort = 11
*.ES_1.app[7].io.localPort = 52
*.ES_1.app[8].io.localPort = 57
*.ES_1.app[9].io.localPort = 59
*.ES_1.app[10].io.localPort = 194
*.ES_1.app[11].io.localPort = 230
*.ES_1.app[12].io.localPort = 233
*.ES_2.app[0..5].typename = "UdpSourceApp"
*.ES_2.app[0].display-name = "ats"
*.ES_2.app[0].io.destAddress = "ES_32"
*.ES_2.app[0].io.destPort = 7
*.ES_2.app[0].source.productionInterval = 2000us
*.ES_2.app[0].source.initialProductionOffset = 2000us
*.ES_2.app[0].source.packetLength = 747B
*.ES_2.app[1].display-name = "ats"
*.ES_2.app[1].io.destAddress = "ES_33"
*.ES_2.app[1].io.destPort = 8
*.ES_2.app[1].source.productionInterval = 1500us
*.ES_2.app[1].source.initialProductionOffset = 1500us
*.ES_2.app[1].source.packetLength = 777B
*.ES_2.app[2].display-name = "ats"
*.ES_2.app[2].io.destAddress = "ES_28"
*.ES_2.app[2].io.destPort = 9
*.ES_2.app[2].source.productionInterval = 2000us
*.ES_2.app[2].source.initialProductionOffset = 2000us
*.ES_2.app[2].source.packetLength = 500B
*.ES_2.app[3].display-name = "ats"
*.ES_2.app[3].io.destAddress = "ES_40"
*.ES_2.app[3].io.destPort = 10
*.ES_2.app[3].source.productionInterval = 2000us
*.ES_2.app[3].source.initialProductionOffset = 2000us
*.ES_2.app[3].source.packetLength = 728B
*.ES_2.app[4].display-name = "ats"
*.ES_2.app[4].io.destAddress = "ES_1"
*.ES_2.app[4].io.destPort = 11
*.ES_2.app[4].source.productionInterval = 2000us
*.ES_2.app[4].source.initialProductionOffset = 2000us
*.ES_2.app[4].source.packetLength = 723B
*.ES_2.app[5].display-name = "ats"
*.ES_2.app[5].io.destAddress = "ES_36"
*.ES_2.app[5].io.destPort = 12
*.ES_2.app[5].source.productionInterval = 2000us
*.ES_2.app[5].source.initialProductionOffset = 2000us
*.ES_2.app[5].source.packetLength = 563B
*.ES_2.app[6..10].typename = "UdpSinkApp"
*.ES_2.app[6].io.localPort = 38
*.ES_2.app[7].io.localPort = 76
*.ES_2.app[8].io.localPort = 89
*.ES_2.app[9].io.localPort = 94
*.ES_2.app[10].io.localPort = 215
*.ES_3.app[0..5].typename = "UdpSourceApp"
*.ES_3.app[0].display-name = "ats"
*.ES_3.app[0].io.destAddress = "ES_10"
*.ES_3.app[0].io.destPort = 13
*.ES_3.app[0].source.productionInterval = 2000us
*.ES_3.app[0].source.initialProductionOffset = 2000us
*.ES_3.app[0].source.packetLength = 782B
*.ES_3.app[1].display-name = "ats"
*.ES_3.app[1].io.destAddress = "ES_12"
*.ES_3.app[1].io.destPort = 14
*.ES_3.app[1].source.productionInterval = 2000us
*.ES_3.app[1].source.initialProductionOffset = 2000us
*.ES_3.app[1].source.packetLength = 687B
*.ES_3.app[2].display-name = "ats"
*.ES_3.app[2].io.destAddress = "ES_6"
*.ES_3.app[2].io.destPort = 15
*.ES_3.app[2].source.productionInterval = 2000us
*.ES_3.app[2].source.initialProductionOffset = 2000us
*.ES_3.app[2].source.packetLength = 632B
*.ES_3.app[3].display-name = "ats"
*.ES_3.app[3].io.destAddress = "ES_4"
*.ES_3.app[3].io.destPort = 16
*.ES_3.app[3].source.productionInterval = 1500us
*.ES_3.app[3].source.initialProductionOffset = 1500us
*.ES_3.app[3].source.packetLength = 698B
*.ES_3.app[4].display-name = "ats"
*.ES_3.app[4].io.destAddress = "ES_10"
*.ES_3.app[4].io.destPort = 17
*.ES_3.app[4].source.productionInterval = 1500us
*.ES_3.app[4].source.initialProductionOffset = 1500us
*.ES_3.app[4].source.packetLength = 503B
*.ES_3.app[5].display-name = "ats"
*.ES_3.app[5].io.destAddress = "ES_12"
*.ES_3.app[5].io.destPort = 18
*.ES_3.app[5].source.productionInterval = 1500us
*.ES_3.app[5].source.initialProductionOffset = 1500us
*.ES_3.app[5].source.packetLength = 758B
*.ES_3.app[6..7].typename = "UdpSinkApp"
*.ES_3.app[6].io.localPort = 79
*.ES_3.app[7].io.localPort = 178
*.ES_4.app[0..5].typename = "UdpSourceApp"
*.ES_4.app[0].display-name = "ats"
*.ES_4.app[0].io.destAddress = "ES_20"
*.ES_4.app[0].io.destPort = 19
*.ES_4.app[0].source.productionInterval = 1500us
*.ES_4.app[0].source.initialProductionOffset = 1500us
*.ES_4.app[0].source.packetLength = 541B
*.ES_4.app[1].display-name = "ats"
*.ES_4.app[1].io.destAddress = "ES_13"
*.ES_4.app[1].io.destPort = 20
*.ES_4.app[1].source.productionInterval = 1500us
*.ES_4.app[1].source.initialProductionOffset = 1500us
*.ES_4.app[1].source.packetLength = 503B
*.ES_4.app[2].display-name = "ats"
*.ES_4.app[2].io.destAddress = "ES_9"
*.ES_4.app[2].io.destPort = 21
*.ES_4.app[2].source.productionInterval = 1500us
*.ES_4.app[2].source.initialProductionOffset = 1500us
*.ES_4.app[2].source.packetLength = 645B
*.ES_4.app[3].display-name = "ats"
*.ES_4.app[3].io.destAddress = "ES_10"
*.ES_4.app[3].io.destPort = 22
*.ES_4.app[3].source.productionInterval = 2000us
*.ES_4.app[3].source.initialProductionOffset = 2000us
*.ES_4.app[3].source.packetLength = 730B
*.ES_4.app[4].display-name = "ats"
*.ES_4.app[4].io.destAddress = "ES_35"
*.ES_4.app[4].io.destPort = 23
*.ES_4.app[4].source.productionInterval = 2000us
*.ES_4.app[4].source.initialProductionOffset = 2000us
*.ES_4.app[4].source.packetLength = 743B
*.ES_4.app[5].display-name = "ats"
*.ES_4.app[5].io.destAddress = "ES_40"
*.ES_4.app[5].io.destPort = 24
*.ES_4.app[5].source.productionInterval = 2000us
*.ES_4.app[5].source.initialProductionOffset = 2000us
*.ES_4.app[5].source.packetLength = 513B
*.ES_4.app[6..13].typename = "UdpSinkApp"
*.ES_4.app[6].io.localPort = 16
*.ES_4.app[7].io.localPort = 36
*.ES_4.app[8].io.localPort = 119
*.ES_4.app[9].io.localPort = 132
*.ES_4.app[10].io.localPort = 162
*.ES_4.app[11].io.localPort = 176
*.ES_4.app[12].io.localPort = 212
*.ES_4.app[13].io.localPort = 214
*.ES_5.app[0..5].typename = "UdpSourceApp"
*.ES_5.app[0].display-name = "ats"
*.ES_5.app[0].io.destAddress = "ES_23"
*.ES_5.app[0].io.destPort = 25
*.ES_5.app[0].source.productionInterval = 2000us
*.ES_5.app[0].source.initialProductionOffset = 2000us
*.ES_5.app[0].source.packetLength = 746B
*.ES_5.app[1].display-name = "ats"
*.ES_5.app[1].io.destAddress = "ES_21"
*.ES_5.app[1].io.destPort = 26
*.ES_5.app[1].source.productionInterval = 1500us
*.ES_5.app[1].source.initialProductionOffset = 1500us
*.ES_5.app[1].source.packetLength = 790B
*.ES_5.app[2].display-name = "ats"
*.ES_5.app[2].io.destAddress = "ES_40"
*.ES_5.app[2].io.destPort = 27
*.ES_5.app[2].source.productionInterval = 2000us
*.ES_5.app[2].source.initialProductionOffset = 2000us
*.ES_5.app[2].source.packetLength = 640B
*.ES_5.app[3].display-name = "ats"
*.ES_5.app[3].io.destAddress = "ES_28"
*.ES_5.app[3].io.destPort = 28
*.ES_5.app[3].source.productionInterval = 2000us
*.ES_5.app[3].source.initialProductionOffset = 2000us
*.ES_5.app[3].source.packetLength = 765B
*.ES_5.app[4].display-name = "ats"
*.ES_5.app[4].io.destAddress = "ES_18"
*.ES_5.app[4].io.destPort = 29
*.ES_5.app[4].source.productionInterval = 2000us
*.ES_5.app[4].source.initialProductionOffset = 2000us
*.ES_5.app[4].source.packetLength = 604B
*.ES_5.app[5].display-name = "ats"
*.ES_5.app[5].io.destAddress = "ES_26"
*.ES_5.app[5].io.destPort = 30
*.ES_5.app[5].source.productionInterval = 2000us
*.ES_5.app[5].source.initialProductionOffset = 2000us
*.ES_5.app[5].source.packetLength = 753B
*.ES_5.app[6..9].typename = "UdpSinkApp"
*.ES_5.app[6].io.localPort = 37
*.ES_5.app[7].io.localPort = 67
*.ES_5.app[8].io.localPort = 111
*.ES_5.app[9].io.localPort = 155
*.ES_6.app[0..5].typename = "UdpSourceApp"
*.ES_6.app[0].display-name = "ats"
*.ES_6.app[0].io.destAddress = "ES_12"
*.ES_6.app[0].io.destPort = 31
*.ES_6.app[0].source.productionInterval = 1500us
*.ES_6.app[0].source.initialProductionOffset = 1500us
*.ES_6.app[0].source.packetLength = 752B
*.ES_6.app[1].display-name = "ats"
*.ES_6.app[1].io.destAddress = "ES_7"
*.ES_6.app[1].io.destPort = 32
*.ES_6.app[1].source.productionInterval = 2000us
*.ES_6.app[1].source.initialProductionOffset = 2000us
*.ES_6.app[1].source.packetLength = 643B
*.ES_6.app[2].display-name = "ats"
*.ES_6.app[2].io.destAddress = "ES_9"
*.ES_6.app[2].io.destPort = 33
*.ES_6.app[2].source.productionInterval = 2000us
*.ES_6.app[2].source.initialProductionOffset = 2000us
*.ES_6.app[2].source.packetLength = 613B
*.ES_6.app[3].display-name = "ats"
*.ES_6.app[3].io.destAddress = "ES_23"
*.ES_6.app[3].io.destPort = 34
*.ES_6.app[3].source.productionInterval = 2000us
*.ES_6.app[3].source.initialProductionOffset = 2000us
*.ES_6.app[3].source.packetLength = 583B
*.ES_6.app[4].display-name = "ats"
*.ES_6.app[4].io.destAddress = "ES_8"
*.ES_6.app[4].io.destPort = 35
*.ES_6.app[4].source.productionInterval = 1500us
*.ES_6.app[4].source.initialProductionOffset = 1500us
*.ES_6.app[4].source.packetLength = 691B
*.ES_6.app[5].display-name = "ats"
*.ES_6.app[5].io.destAddress = "ES_4"
*.ES_6.app[5].io.destPort = 36
*.ES_6.app[5].source.productionInterval = 1500us
*.ES_6.app[5].source.initialProductionOffset = 1500us
*.ES_6.app[5].source.packetLength = 524B
*.ES_6.app[6..14].typename = "UdpSinkApp"
*.ES_6.app[6].io.localPort = 15
*.ES_6.app[7].io.localPort = 58
*.ES_6.app[8].io.localPort = 83
*.ES_6.app[9].io.localPort = 115
*.ES_6.app[10].io.localPort = 136
*.ES_6.app[11].io.localPort = 138
*.ES_6.app[12].io.localPort = 147
*.ES_6.app[13].io.localPort = 154
*.ES_6.app[14].io.localPort = 160
*.ES_7.app[0..5].typename = "UdpSourceApp"
*.ES_7.app[0].display-name = "ats"
*.ES_7.app[0].io.destAddress = "ES_5"
*.ES_7.app[0].io.destPort = 37
*.ES_7.app[0].source.productionInterval = 1500us
*.ES_7.app[0].source.initialProductionOffset = 1500us
*.ES_7.app[0].source.packetLength = 683B
*.ES_7.app[1].display-name = "ats"
*.ES_7.app[1].io.destAddress = "ES_2"
*.ES_7.app[1].io.destPort = 38
*.ES_7.app[1].source.productionInterval = 1500us
*.ES_7.app[1].source.initialProductionOffset = 1500us
*.ES_7.app[1].source.packetLength = 706B
*.ES_7.app[2].display-name = "ats"
*.ES_7.app[2].io.destAddress = "ES_35"
*.ES_7.app[2].io.destPort = 39
*.ES_7.app[2].source.productionInterval = 1500us
*.ES_7.app[2].source.initialProductionOffset = 1500us
*.ES_7.app[2].source.packetLength = 590B
*.ES_7.app[3].display-name = "ats"
*.ES_7.app[3].io.destAddress = "ES_40"
*.ES_7.app[3].io.destPort = 40
*.ES_7.app[3].source.productionInterval = 2000us
*.ES_7.app[3].source.initialProductionOffset = 2000us
*.ES_7.app[3].source.packetLength = 738B
*.ES_7.app[4].display-name = "ats"
*.ES_7.app[4].io.destAddress = "ES_10"
*.ES_7.app[4].io.destPort = 41
*.ES_7.app[4].source.productionInterval = 2000us
*.ES_7.app[4].source.initialProductionOffset = 2000us
*.ES_7.app[4].source.packetLength = 756B
*.ES_7.app[5].display-name = "ats"
*.ES_7.app[5].io.destAddress = "ES_11"
*.ES_7.app[5].io.destPort = 42
*.ES_7.app[5].source.productionInterval = 1500us
*.ES_7.app[5].source.initialProductionOffset = 1500us
*.ES_7.app[5].source.packetLength = 762B
*.ES_7.app[6..9].typename = "UdpSinkApp"
*.ES_7.app[6].io.localPort = 32
*.ES_7.app[7].io.localPort = 141
*.ES_7.app[8].io.localPort = 203
*.ES_7.app[9].io.localPort = 207
*.ES_8.app[0..5].typename = "UdpSourceApp"
*.ES_8.app[0].display-name = "ats"
*.ES_8.app[0].io.destAddress = "ES_28"
*.ES_8.app[0].io.destPort = 43
*.ES_8.app[0].source.productionInterval = 2000us
*.ES_8.app[0].source.initialProductionOffset = 2000us
*.ES_8.app[0].source.packetLength = 575B
*.ES_8.app[1].display-name = "ats"
*.ES_8.app[1].io.destAddress = "ES_18"
*.ES_8.app[1].io.destPort = 44
*.ES_8.app[1].source.productionInterval = 2000us
*.ES_8.app[1].source.initialProductionOffset = 2000us
*.ES_8.app[1].source.packetLength = 595B
*.ES_8.app[2].display-name = "ats"
*.ES_8.app[2].io.destAddress = "ES_35"
*.ES_8.app[2].io.destPort = 45
*.ES_8.app[2].source.productionInterval = 1500us
*.ES_8.app[2].source.initialProductionOffset = 1500us
*.ES_8.app[2].source.packetLength = 733B
*.ES_8.app[3].display-name = "ats"
*.ES_8.app[3].io.destAddress = "ES_13"
*.ES_8.app[3].io.destPort = 46
*.ES_8.app[3].source.productionInterval = 1500us
*.ES_8.app[3].source.initialProductionOffset = 1500us
*.ES_8.app[3].source.packetLength = 763B
*.ES_8.app[4].display-name = "ats"
*.ES_8.app[4].io.destAddress = "ES_31"
*.ES_8.app[4].io.destPort = 47
*.ES_8.app[4].source.productionInterval = 2000us
*.ES_8.app[4].source.initialProductionOffset = 2000us
*.ES_8.app[4].source.packetLength = 516B
*.ES_8.app[5].display-name = "ats"
*.ES_8.app[5].io.destAddress = "ES_9"
*.ES_8.app[5].io.destPort = 48
*.ES_8.app[5].source.productionInterval = 2000us
*.ES_8.app[5].source.initialProductionOffset = 2000us
*.ES_8.app[5].source.packetLength = 576B
*.ES_8.app[6..9].typename = "UdpSinkApp"
*.ES_8.app[6].io.localPort = 35
*.ES_8.app[7].io.localPort = 102
*.ES_8.app[8].io.localPort = 169
*.ES_8.app[9].io.localPort = 206
*.ES_9.app[0..5].typename = "UdpSourceApp"
*.ES_9.app[0].display-name = "ats"
*.ES_9.app[0].io.destAddress = "ES_27"
*.ES_9.app[0].io.destPort = 49
*.ES_9.app[0].source.productionInterval = 2000us
*.ES_9.app[0].source.initialProductionOffset = 2000us
*.ES_9.app[0].source.packetLength = 603B
*.ES_9.app[1].display-name = "ats"
*.ES_9.app[1].io.destAddress = "ES_38"
*.ES_9.app[1].io.destPort = 50
*.ES_9.app[1].source.productionInterval = 2000us
*.ES_9.app[1].source.initialProductionOffset = 2000us
*.ES_9.app[1].source.packetLength = 592B
*.ES_9.app[2].display-name = "ats"
*.ES_9.app[2].io.destAddress = "ES_29"
*.ES_9.app[2].io.destPort = 51
*.ES_9.app[2].source.productionInterval = 1500us
*.ES_9.app[2].source.initialProductionOffset = 1500us
*.ES_9.app[2].source.packetLength = 602B
*.ES_9.app[3].display-name = "ats"
*.ES_9.app[3].io.destAddress = "ES_1"
*.ES_9.app[3].io.destPort = 52
*.ES_9.app[3].source.productionInterval = 1500us
*.ES_9.app[3].source.initialProductionOffset = 1500us
*.ES_9.app[3].source.packetLength = 525B
*.ES_9.app[4].display-name = "ats"
*.ES_9.app[4].io.destAddress = "ES_27"
*.ES_9.app[4].io.destPort = 53
*.ES_9.app[4].source.productionInterval = 2000us
*.ES_9.app[4].source.initialProductionOffset = 2000us
*.ES_9.app[4].source.packetLength = 757B
*.ES_9.app[5].display-name = "ats"
*.ES_9.app[5].io.destAddress = "ES_17"
*.ES_9.app[5].io.destPort = 54
*.ES_9.app[5].source.productionInterval = 2000us
*.ES_9.app[5].source.initialProductionOffset = 2000us
*.ES_9.app[5].source.packetLength = 793B
*.ES_9.app[6..13].typename = "UdpSinkApp"
*.ES_9.app[6].io.localPort = 3
*.ES_9.app[7].io.localPort = 21
*.ES_9.app[8].io.localPort = 33
*.ES_9.app[9].io.localPort = 48
*.ES_9.app[10].io.localPort = 91
*.ES_9.app[11].io.localPort = 98
*.ES_9.app[12].io.localPort = 153
*.ES_9.app[13].io.localPort = 199
*.ES_10.app[0..5].typename = "UdpSourceApp"
*.ES_10.app[0].display-name = "ats"
*.ES_10.app[0].io.destAddress = "ES_36"
*.ES_10.app[0].io.destPort = 55
*.ES_10.app[0].source.productionInterval = 1500us
*.ES_10.app[0].source.initialProductionOffset = 1500us
*.ES_10.app[0].source.packetLength = 745B
*.ES_10.app[1].display-name = "ats"
*.ES_10.app[1].io.destAddress = "ES_19"
*.ES_10.app[1].io.destPort = 56
*.ES_10.app[1].source.productionInterval = 2000us
*.ES_10.app[1].source.initialProductionOffset = 2000us
*.ES_10.app[1].source.packetLength = 789B
*.ES_10.app[2].display-name = "ats"
*.ES_10.app[2].io.destAddress = "ES_1"
*.ES_10.app[2].io.destPort = 57
*.ES_10.app[2].source.productionInterval = 1500us
*.ES_10.app[2].source.initialProductionOffset = 1500us
*.ES_10.app[2].source.packetLength = 530B
*.ES_10.app[3].display-name = "ats"
*.ES_10.app[3].io.destAddress = "ES_6"
*.ES_10.app[3].io.destPort = 58
*.ES_10.app[3].source.productionInterval = 1500us
*.ES_10.app[3].source.initialProductionOffset = 1500us
*.ES_10.app[3].source.packetLength = 721B
*.ES_10.app[4].display-name = "ats"
*.ES_10.app[4].io.destAddress = "ES_1"
*.ES_10.app[4].io.destPort = 59
*.ES_10.app[4].source.productionInterval = 1500us
*.ES_10.app[4].source.initialProductionOffset = 1500us
*.ES_10.app[4].source.packetLength = 709B
*.ES_10.app[5].display-name = "ats"
*.ES_10.app[5].io.destAddress = "ES_25"
*.ES_10.app[5].io.destPort = 60
*.ES_10.app[5].source.productionInterval = 1500us
*.ES_10.app[5].source.initialProductionOffset = 1500us
*.ES_10.app[5].source.packetLength = 753B
*.ES_10.app[6..12].typename = "UdpSinkApp"
*.ES_10.app[6].io.localPort = 13
*.ES_10.app[7].io.localPort = 17
*.ES_10.app[8].io.localPort = 22
*.ES_10.app[9].io.localPort = 41
*.ES_10.app[10].io.localPort = 164
*.ES_10.app[11].io.localPort = 174
*.ES_10.app[12].io.localPort = 190
*.ES_11.app[0..5].typename = "UdpSourceApp"
*.ES_11.app[0].display-name = "ats"
*.ES_11.app[0].io.destAddress = "ES_20"
*.ES_11.app[0].io.destPort = 61
*.ES_11.app[0].source.productionInterval = 2000us
*.ES_11.app[0].source.initialProductionOffset = 2000us
*.ES_11.app[0].source.packetLength = 644B
*.ES_11.app[1].display-name = "ats"
*.ES_11.app[1].io.destAddress = "ES_26"
*.ES_11.app[1].io.destPort = 62
*.ES_11.app[1].source.productionInterval = 2000us
*.ES_11.app[1].source.initialProductionOffset = 2000us
*.ES_11.app[1].source.packetLength = 777B
*.ES_11.app[2].display-name = "ats"
*.ES_11.app[2].io.destAddress = "ES_19"
*.ES_11.app[2].io.destPort = 63
*.ES_11.app[2].source.productionInterval = 1500us
*.ES_11.app[2].source.initialProductionOffset = 1500us
*.ES_11.app[2].source.packetLength = 685B
*.ES_11.app[3].display-name = "ats"
*.ES_11.app[3].io.destAddress = "ES_13"
*.ES_11.app[3].io.destPort = 64
*.ES_11.app[3].source.productionInterval = 2000us
*.ES_11.app[3].source.initialProductionOffset = 2000us
*.ES_11.app[3].source.packetLength = 791B
*.ES_11.app[4].display-name = "ats"
*.ES_11.app[4].io.destAddress = "ES_28"
*.ES_11.app[4].io.destPort = 65
*.ES_11.app[4].source.productionInterval = 1500us
*.ES_11.app[4].source.initialProductionOffset = 1500us
*.ES_11.app[4].source.packetLength = 763B
*.ES_11.app[5].display-name = "ats"
*.ES_11.app[5].io.destAddress = "ES_15"
*.ES_11.app[5].io.destPort = 66
*.ES_11.app[5].source.productionInterval = 2000us
*.ES_11.app[5].source.initialProductionOffset = 2000us
*.ES_11.app[5].source.packetLength = 664B
*.ES_11.app[6..13].typename = "UdpSinkApp"
*.ES_11.app[6].io.localPort = 42
*.ES_11.app[7].io.localPort = 87
*.ES_11.app[8].io.localPort = 109
*.ES_11.app[9].io.localPort = 112
*.ES_11.app[10].io.localPort = 113
*.ES_11.app[11].io.localPort = 131
*.ES_11.app[12].io.localPort = 137
*.ES_11.app[13].io.localPort = 200
*.ES_12.app[0..5].typename = "UdpSourceApp"
*.ES_12.app[0].display-name = "ats"
*.ES_12.app[0].io.destAddress = "ES_5"
*.ES_12.app[0].io.destPort = 67
*.ES_12.app[0].source.productionInterval = 1500us
*.ES_12.app[0].source.initialProductionOffset = 1500us
*.ES_12.app[0].source.packetLength = 767B
*.ES_12.app[1].display-name = "ats"
*.ES_12.app[1].io.destAddress = "ES_33"
*.ES_12.app[1].io.destPort = 68
*.ES_12.app[1].source.productionInterval = 2000us
*.ES_12.app[1].source.initialProductionOffset = 2000us
*.ES_12.app[1].source.packetLength = 589B
*.ES_12.app[2].display-name = "ats"
*.ES_12.app[2].io.destAddress = "ES_40"
*.ES_12.app[2].io.destPort = 69
*.ES_12.app[2].source.productionInterval = 2000us
*.ES_12.app[2].source.initialProductionOffset = 2000us
*.ES_12.app[2].source.packetLength = 749B
*.ES_12.app[3].display-name = "ats"
*.ES_12.app[3].io.destAddress = "ES_40"
*.ES_12.app[3].io.destPort = 70
*.ES_12.app[3].source.productionInterval = 2000us
*.ES_12.app[3].source.initialProductionOffset = 2000us
*.ES_12.app[3].source.packetLength = 620B
*.ES_12.app[4].display-name = "ats"
*.ES_12.app[4].io.destAddress = "ES_30"
*.ES_12.app[4].io.destPort = 71
*.ES_12.app[4].source.productionInterval = 2000us
*.ES_12.app[4].source.initialProductionOffset = 2000us
*.ES_12.app[4].source.packetLength = 752B
*.ES_12.app[5].display-name = "ats"
*.ES_12.app[5].io.destAddress = "ES_21"
*.ES_12.app[5].io.destPort = 72
*.ES_12.app[5].source.productionInterval = 2000us
*.ES_12.app[5].source.initialProductionOffset = 2000us
*.ES_12.app[5].source.packetLength = 791B
*.ES_12.app[6..12].typename = "UdpSinkApp"
*.ES_12.app[6].io.localPort = 14
*.ES_12.app[7].io.localPort = 18
*.ES_12.app[8].io.localPort = 31
*.ES_12.app[9].io.localPort = 110
*.ES_12.app[10].io.localPort = 149
*.ES_12.app[11].io.localPort = 223
*.ES_12.app[12].io.localPort = 238
*.ES_13.app[0..5].typename = "UdpSourceApp"
*.ES_13.app[0].display-name = "ats"
*.ES_13.app[0].io.destAddress = "ES_37"
*.ES_13.app[0].io.destPort = 73
*.ES_13.app[0].source.productionInterval = 2000us
*.ES_13.app[0].source.initialProductionOffset = 2000us
*.ES_13.app[0].source.packetLength = 580B
*.ES_13.app[1].display-name = "ats"
*.ES_13.app[1].io.destAddress = "ES_23"
*.ES_13.app[1].io.destPort = 74
*.ES_13.app[1].source.productionInterval = 1500us
*.ES_13.app[1].source.initialProductionOffset = 1500us
*.ES_13.app[1].source.packetLength = 798B
*.ES_13.app[2].display-name = "ats"
*.ES_13.app[2].io.destAddress = "ES_16"
*.ES_13.app[2].io.destPort = 75
*.ES_13.app[2].source.productionInterval = 2000us
*.ES_13.app[2].source.initialProductionOffset = 2000us
*.ES_13.app[2].source.packetLength = 586B
*.ES_13.app[3].display-name = "ats"
*.ES_13.app[3].io.destAddress = "ES_2"
*.ES_13.app[3].io.destPort = 76
*.ES_13.app[3].source.productionInterval = 2000us
*.ES_13.app[3].source.initialProductionOffset = 2000us
*.ES_13.app[3].source.packetLength = 652B
*.ES_13.app[4].display-name = "ats"
*.ES_13.app[4].io.destAddress = "ES_14"
*.ES_13.app[4].io.destPort = 77
*.ES_13.app[4].source.productionInterval = 1500us
*.ES_13.app[4].source.initialProductionOffset = 1500us
*.ES_13.app[4].source.packetLength = 643B
*.ES_13.app[5].display-name = "ats"
*.ES_13.app[5].io.destAddress = "ES_25"
*.ES_13.app[5].io.destPort = 78
*.ES_13.app[5].source.productionInterval = 2000us
*.ES_13.app[5].source.initialProductionOffset = 2000us
*.ES_13.app[5].source.packetLength = 671B
*.ES_13.app[6..9].typename = "UdpSinkApp"
*.ES_13.app[6].io.localPort = 20
*.ES_13.app[7].io.localPort = 46
*.ES_13.app[8].io.localPort = 64
*.ES_13.app[9].io.localPort = 139
*.ES_14.app[0..5].typename = "UdpSourceApp"
*.ES_14.app[0].display-name = "ats"
*.ES_14.app[0].io.destAddress = "ES_3"
*.ES_14.app[0].io.destPort = 79
*.ES_14.app[0].source.productionInterval = 1500us
*.ES_14.app[0].source.initialProductionOffset = 1500us
*.ES_14.app[0].source.packetLength = 752B
*.ES_14.app[1].display-name = "ats"
*.ES_14.app[1].io.destAddress = "ES_28"
*.ES_14.app[1].io.destPort = 80
*.ES_14.app[1].source.productionInterval = 1500us
*.ES_14.app[1].source.initialProductionOffset = 1500us
*.ES_14.app[1].source.packetLength = 651B
*.ES_14.app[2].display-name = "ats"
*.ES_14.app[2].io.destAddress = "ES_16"
*.ES_14.app[2].io.destPort = 81
*.ES_14.app[2].source.productionInterval = 1500us
*.ES_14.app[2].source.initialProductionOffset = 1500us
*.ES_14.app[2].source.packetLength = 569B
*.ES_14.app[3].display-name = "ats"
*.ES_14.app[3].io.destAddress = "ES_24"
*.ES_14.app[3].io.destPort = 82
*.ES_14.app[3].source.productionInterval = 2000us
*.ES_14.app[3].source.initialProductionOffset = 2000us
*.ES_14.app[3].source.packetLength = 661B
*.ES_14.app[4].display-name = "ats"
*.ES_14.app[4].io.destAddress = "ES_6"
*.ES_14.app[4].io.destPort = 83
*.ES_14.app[4].source.productionInterval = 2000us
*.ES_14.app[4].source.initialProductionOffset = 2000us
*.ES_14.app[4].source.packetLength = 685B
*.ES_14.app[5].display-name = "ats"
*.ES_14.app[5].io.destAddress = "ES_32"
*.ES_14.app[5].io.destPort = 84
*.ES_14.app[5].source.productionInterval = 1500us
*.ES_14.app[5].source.initialProductionOffset = 1500us
*.ES_14.app[5].source.packetLength = 578B
*.ES_14.app[6..15].typename = "UdpSinkApp"
*.ES_14.app[6].io.localPort = 77
*.ES_14.app[7].io.localPort = 103
*.ES_14.app[8].io.localPort = 126
*.ES_14.app[9].io.localPort = 135
*.ES_14.app[10].io.localPort = 142
*.ES_14.app[11].io.localPort = 165
*.ES_14.app[12].io.localPort = 202
*.ES_14.app[13].io.localPort = 208
*.ES_14.app[14].io.localPort = 213
*.ES_14.app[15].io.localPort = 216
*.ES_15.app[0..5].typename = "UdpSourceApp"
*.ES_15.app[0].display-name = "ats"
*.ES_15.app[0].io.destAddress = "ES_34"
*.ES_15.app[0].io.destPort = 85
*.ES_15.app[0].source.productionInterval = 2000us
*.ES_15.app[0].source.initialProductionOffset = 2000us
*.ES_15.app[0].source.packetLength = 514B
*.ES_15.app[1].display-name = "ats"
*.ES_15.app[1].io.destAddress = "ES_38"
*.ES_15.app[1].io.destPort = 86
*.ES_15.app[1].source.productionInterval = 2000us
*.ES_15.app[1].source.initialProductionOffset = 2000us
*.ES_15.app[1].source.packetLength = 695B
*.ES_15.app[2].display-name = "ats"
*.ES_15.app[2].io.destAddress = "ES_11"
*.ES_15.app[2].io.destPort = 87
*.ES_15.app[2].source.productionInterval = 2000us
*.ES_15.app[2].source.initialProductionOffset = 2000us
*.ES_15.app[2].source.packetLength = 676B
*.ES_15.app[3].display-name = "ats"
*.ES_15.app[3].io.destAddress = "ES_20"
*.ES_15.app[3].io.destPort = 88
*.ES_15.app[3].source.productionInterval = 1500us
*.ES_15.app[3].source.initialProductionOffset = 1500us
*.ES_15.app[3].source.packetLength = 590B
*.ES_15.app[4].display-name = "ats"
*.ES_15.app[4].io.destAddress = "ES_2"
*.ES_15.app[4].io.destPort = 89
*.ES_15.app[4].source.productionInterval = 1500us
*.ES_15.app[4].source.initialProductionOffset = 1500us
*.ES_15.app[4].source.packetLength = 711B
*.ES_15.app[5].display-name = "ats"
*.ES_15.app[5].io.destAddress = "ES_34"
*.ES_15.app[5].io.destPort = 90
*.ES_15.app[5].source.productionInterval = 2000us
*.ES_15.app[5].source.initialProductionOffset = 2000us
*.ES_15.app[5].source.packetLength = 638B
*.ES_15.app[6..8].typename = "UdpSinkApp"
*.ES_15.app[6].io.localPort = 66
*.ES_15.app[7].io.localPort = 166
*.ES_15.app[8].io.localPort = 205
*.ES_16.app[0..5].typename = "UdpSourceApp"
*.ES_16.app[0].display-name = "ats"
*.ES_16.app[0].io.destAddress = "ES_9"
*.ES_16.app[0].io.destPort = 91
*.ES_16.app[0].source.productionInterval = 1500us
*.ES_16.app[0].source.initialProductionOffset = 1500us
*.ES_16.app[0].source.packetLength = 779B
*.ES_16.app[1].display-name = "ats"
*.ES_16.app[1].io.destAddress = "ES_36"
*.ES_16.app[1].io.destPort = 92
*.ES_16.app[1].source.productionInterval = 2000us
*.ES_16.app[1].source.initialProductionOffset = 2000us
*.ES_16.app[1].source.packetLength = 608B
*.ES_16.app[2].display-name = "ats"
*.ES_16.app[2].io.destAddress = "ES_25"
*.ES_16.app[2].io.destPort = 93
*.ES_16.app[2].source.productionInterval = 2000us
*.ES_16.app[2].source.initialProductionOffset = 2000us
*.ES_16.app[2].source.packetLength = 522B
*.ES_16.app[3].display-name = "ats"
*.ES_16.app[3].io.destAddress = "ES_2"
*.ES_16.app[3].io.destPort = 94
*.ES_16.app[3].source.productionInterval = 1500us
*.ES_16.app[3].source.initialProductionOffset = 1500us
*.ES_16.app[3].source.packetLength = 678B
*.ES_16.app[4].display-name = "ats"
*.ES_16.app[4].io.destAddress = "ES_26"
*.ES_16.app[4].io.destPort = 95
*.ES_16.app[4].source.productionInterval = 2000us
*.ES_16.app[4].source.initialProductionOffset = 2000us
*.ES_16.app[4].source.packetLength = 582B
*.ES_16.app[5].display-name = "ats"
*.ES_16.app[5].io.destAddress = "ES_39"
*.ES_16.app[5].io.destPort = 96
*.ES_16.app[5].source.productionInterval = 2000us
*.ES_16.app[5].source.initialProductionOffset = 2000us
*.ES_16.app[5].source.packetLength = 650B
*.ES_16.app[6..11].typename = "UdpSinkApp"
*.ES_16.app[6].io.localPort = 2
*.ES_16.app[7].io.localPort = 75