[General]
network = tsn.random_geo_TSN_Network
sim-time-limit = 1.0s

# enable multiple canvas visualizers
*.visualizer.typename = "IntegratedMultiCanvasVisualizer"

# network route activity visualization
*.visualizer.numNetworkRouteVisualizers = 1
*.visualizer.networkRouteVisualizer[*].displayRoutes = true
*.visualizer.networkRouteVisualizer[0].packetFilter = "\"ats*\""
*.visualizer.networkRouteVisualizer[0].lineColor = "red1"

*.*.eth[*].bitrate = 1Gbps

# packet processing delay
*.*.bridging.directionReverser.delayer.typename = "PacketDelayer"
*.*.bridging.directionReverser.delayer.delay = 8us

*.ES_1.numApps = 3
*.ES_2.numApps = 3
*.ES_3.numApps = 5
*.ES_4.numApps = 6
*.ES_5.numApps = 5
*.ES_6.numApps = 7
*.ES_7.numApps = 2
*.ES_8.numApps = 4
*.ES_9.numApps = 3
*.ES_10.numApps = 4
*.ES_11.numApps = 2
*.ES_12.numApps = 3
*.ES_13.numApps = 4
*.ES_14.numApps = 3
*.ES_15.numApps = 6
*.ES_16.numApps = 4
*.ES_17.numApps = 5
*.ES_18.numApps = 6
*.ES_19.numApps = 2
*.ES_20.numApps = 3
*.ES_21.numApps = 4
*.ES_22.numApps = 6
*.ES_23.numApps = 4
*.ES_24.numApps = 3
*.ES_25.numApps = 5
*.ES_26.numApps = 4
*.ES_27.numApps = 3
*.ES_28.numApps = 6
*.ES_29.numApps = 7
*.ES_30.numApps = 2
*.ES_31.numApps = 4
*.ES_32.numApps = 2
*.ES_33.numApps = 2
*.ES_34.numApps = 3
*.ES_35.numApps = 6
*.ES_36.numApps = 5
*.ES_37.numApps = 4
*.ES_38.numApps = 5
*.ES_39.numApps = 2
*.ES_40.numApps = 4
*.ES_41.numApps = 3
*.ES_42.numApps = 3
*.ES_43.numApps = 4
*.ES_44.numApps = 5
*.ES_45.numApps = 3
*.ES_46.numApps = 3
*.ES_47.numApps = 5
*.ES_48.numApps = 5
*.ES_49.numApps = 5
*.ES_50.numApps = 4
*.ES_51.numApps = 4
*.ES_52.numApps = 4
*.ES_53.numApps = 2
*.ES_54.numApps = 4
*.ES_55.numApps = 4
*.ES_56.numApps = 6
*.ES_57.numApps = 3
*.ES_58.numApps = 5
*.ES_59.numApps = 3
*.ES_60.numApps = 4
*.ES_1.app[0..1].typename = "UdpSourceApp"
*.ES_1.app[0].display-name = "ats"
*.ES_1.app[0].io.destAddress = "ES_38"
*.ES_1.app[0].io.destPort = 1
*.ES_1.app[0].source.productionInterval = 1500us
*.ES_1.app[0].source.initialProductionOffset = 1500us
*.ES_1.app[0].source.packetLength = 928B
*.ES_1.app[1].display-name = "ats"
*.ES_1.app[1].io.destAddress = "ES_18"
*.ES_1.app[1].io.destPort = 2
*.ES_1.app[1].source.productionInterval = 500us
*.ES_1.app[1].source.initialProductionOffset = 500us
*.ES_1.app[1].source.packetLength = 1623B
*.ES_1.app[2].typename = "UdpSinkApp"
*.ES_1.app[2].io.localPort = 30
*.ES_2.app[0..1].typename = "UdpSourceApp"
*.ES_2.app[0].display-name = "ats"
*.ES_2.app[0].io.destAddress = "ES_35"
*.ES_2.app[0].io.destPort = 3
*.ES_2.app[0].source.productionInterval = 1000us
*.ES_2.app[0].source.initialProductionOffset = 1000us
*.ES_2.app[0].source.packetLength = 1629B
*.ES_2.app[1].display-name = "ats"
*.ES_2.app[1].io.destAddress = "ES_17"
*.ES_2.app[1].io.destPort = 4
*.ES_2.app[1].source.productionInterval = 1500us
*.ES_2.app[1].source.initialProductionOffset = 1500us
*.ES_2.app[1].source.packetLength = 1356B
*.ES_2.app[2].typename = "UdpSinkApp"
*.ES_2.app[2].io.localPort = 88
*.ES_3.app[0..1].typename = "UdpSourceApp"
*.ES_3.app[0].display-name = "ats"
*.ES_3.app[0].io.destAddress = "ES_8"
*.ES_3.app[0].io.destPort = 5
*.ES_3.app[0].source.productionInterval = 1000us
*.ES_3.app[0].source.initialProductionOffset = 1000us
*.ES_3.app[0].source.packetLength = 1979B
*.ES_3.app[1].display-name = "ats"
*.ES_3.app[1].io.destAddress = "ES_56"
*.ES_3.app[1].io.destPort = 6
*.ES_3.app[1].source.productionInterval = 1000us
*.ES_3.app[1].source.initialProductionOffset = 1000us
*.ES_3.app[1].source.packetLength = 1967B
*.ES_3.app[2..4].typename = "UdpSinkApp"
*.ES_3.app[2].io.localPort = 16
*.ES_3.app[3].io.localPort = 45
*.ES_3.app[4].io.localPort = 98
*.ES_4.app[0..1].typename = "UdpSourceApp"
*.ES_4.app[0].display-name = "ats"
*.ES_4.app[0].io.destAddress = "ES_40"
*.ES_4.app[0].io.destPort = 7
*.ES_4.app[0].source.productionInterval = 500us
*.ES_4.app[0].source.initialProductionOffset = 500us
*.ES_4.app[0].source.packetLength = 1785B
*.ES_4.app[1].display-name = "ats"
*.ES_4.app[1].io.destAddress = "ES_6"
*.ES_4.app[1].io.destPort = 8
*.ES_4.app[1].source.productionInterval = 500us
*.ES_4.app[1].source.initialProductionOffset = 500us
*.ES_4.app[1].source.packetLength = 1582B
*.ES_4.app[2..5].typename = "UdpSinkApp"
*.ES_4.app[2].io.localPort = 18
*.ES_4.app[3].io.localPort = 80
*.ES_4.app[4].io.localPort = 110
*.ES_4.app[5].io.localPort = 119
*.ES_5.app[0..1].typename = "UdpSourceApp"
*.ES_5.app[0].display-name = "ats"
*.ES_5.app[0].io.destAddress = "ES_35"
*.ES_5.app[0].io.destPort = 9
*.ES_5.app[0].source.productionInterval = 500us
*.ES_5.app[0].source.initialProductionOffset = 500us
*.ES_5.app[0].source.packetLength = 1896B
*.ES_5.app[1].display-name = "ats"
*.ES_5.app[1].io.destAddress = "ES_12"
*.ES_5.app[1].io.destPort = 10
*.ES_5.app[1].source.productionInterval = 500us
*.ES_5.app[1].source.initialProductionOffset = 500us
*.ES_5.app[1].source.packetLength = 1136B
*.ES_5.app[2..4].typename = "UdpSinkApp"
*.ES_5.app[2].io.localPort = 23
*.ES_5.app[3].io.localPort = 113
*.ES_5.app[4].io.localPort = 120
*.ES_6.app[0..1].typename = "UdpSourceApp"
*.ES_6.app[0].display-name = "ats"
*.ES_6.app[0].io.destAddress = "ES_60"
*.ES_6.app[0].io.destPort = 11
*.ES_6.app[0].source.productionInterval = 1500us
*.ES_6.app[0].source.initialProductionOffset = 1500us
*.ES_6.app[0].source.packetLength = 1488B
*.ES_6.app[1].display-name = "ats"
*.ES_6.app[1].io.destAddress = "ES_29"
*.ES_6.app[1].io.destPort = 12
*.ES_6.app[1].source.productionInterval = 500us
*.ES_6.app[1].source.initialProductionOffset = 500us
*.ES_6.app[1].source.packetLength = 1251B
*.ES_6.app[2..6].typename = "UdpSinkApp"
*.ES_6.app[2].io.localPort = 8
*.ES_6.app[3].io.localPort = 14
*.ES_6.app[4].io.localPort = 29
*.ES_6.app[5].io.localPort = 62
*.ES_6.app[6].io.localPort = 72
*.ES_7.app[0..1].typename = "UdpSourceApp"
*.ES_7.app[0].display-name = "ats"
*.ES_7.app[0].io.destAddress = "ES_15"
*.ES_7.app[0].io.destPort = 13
*.ES_7.app[0].source.productionInterval = 1000us
*.ES_7.app[0].source.initialProductionOffset = 1000us
*.ES_7.app[0].source.packetLength = 975B
*.ES_7.app[1].display-name = "ats"
*.ES_7.app[1].io.destAddress = "ES_6"
*.ES_7.app[1].io.destPort = 14
*.ES_7.app[1].source.productionInterval = 500us
*.ES_7.app[1].source.initialProductionOffset = 500us
*.ES_7.app[1].source.packetLength = 1891B
*.ES_8.app[0..1].typename = "UdpSourceApp"
*.ES_8.app[0].display-name = "ats"
*.ES_8.app[0].io.destAddress = "ES_24"
*.ES_8.app[0].io.destPort = 15
*.ES_8.app[0].source.productionInterval = 500us
*.ES_8.app[0].source.initialProductionOffset = 500us
*.ES_8.app[0].source.packetLength = 1708B
*.ES_8.app[1].display-name = "ats"
*.ES_8.app[1].io.destAddress = "ES_3"
*.ES_8.app[1].io.destPort = 16
*.ES_8.app[1].source.productionInterval = 1500us
*.ES_8.app[1].source.initialProductionOffset = 1500us
*.ES_8.app[1].source.packetLength = 1907B
*.ES_8.app[2..3].typename = "UdpSinkApp"
*.ES_8.app[2].io.localPort = 5
*.ES_8.app[3].io.localPort = 57
*.ES_9.app[0..1].typename = "UdpSourceApp"
*.ES_9.app[0].display-name = "ats"
*.ES_9.app[0].io.destAddress = "ES_54"
*.ES_9.app[0].io.destPort = 17
*.ES_9.app[0].source.productionInterval = 1000us
*.ES_9.app[0].source.initialProductionOffset = 1000us
*.ES_9.app[0].source.packetLength = 1468B
*.ES_9.app[1].display-name = "ats"
*.ES_9.app[1].io.destAddress = "ES_4"
*.ES_9.app[1].io.destPort = 18
*.ES_9.app[1].source.productionInterval = 500us
*.ES_9.app[1].source.initialProductionOffset = 500us
*.ES_9.app[1].source.packetLength = 1822B
*.ES_9.app[2].typename = "UdpSinkApp"
*.ES_9.app[2].io.localPort = 31
*.ES_10.app[0..1].typename = "UdpSourceApp"
*.ES_10.app[0].display-name = "ats"
*.ES_10.app[0].io.destAddress = "ES_36"
*.ES_10.app[0].io.destPort = 19
*.ES_10.app[0].source.productionInterval = 1000us
*.ES_10.app[0].source.initialProductionOffset = 1000us
*.ES_10.app[0].source.packetLength = 918B
*.ES_10.app[1].display-name = "ats"
*.ES_10.app[1].io.destAddress = "ES_52"
*.ES_10.app[1].io.destPort = 20
*.ES_10.app[1].source.productionInterval = 1500us
*.ES_10.app[1].source.initialProductionOffset = 1500us
*.ES_10.app[1].source.packetLength = 1815B
*.ES_10.app[2..3].typename = "UdpSinkApp"
*.ES_10.app[2].io.localPort = 79
*.ES_10.app[3].io.localPort = 89
*.ES_11.app[0..1].typename = "UdpSourceApp"
*.ES_11.app[0].display-name = "ats"
*.ES_11.app[0].io.destAddress = "ES_29"
*.ES_11.app[0].io.destPort = 21
*.ES_11.app[0].source.productionInterval = 1000us
*.ES_11.app[0].source.initialProductionOffset = 1000us
*.ES_11.app[0].source.packetLength = 1934B
*.ES_11.app[1].display-name = "ats"
*.ES_11.app[1].io.destAddress = "ES_23"
*.ES_11.app[1].io.destPort = 22
*.ES_11.app[1].source.productionInterval = 500us
*.ES_11.app[1].source.initialProductionOffset = 500us
*.ES_11.app[1].source.packetLength = 1985B
*.ES_12.app[0..1].typename = "UdpSourceApp"
*.ES_12.app[0].display-name = "ats"
*.ES_12.app[0].io.destAddress = "ES_5"
*.ES_12.app[0].io.destPort = 23
*.ES_12.app[0].source.productionInterval = 1500us
*.ES_12.app[0].source.initialProductionOffset = 1500us
*.ES_12.app[0].source.packetLength = 1453B
*.ES_12.app[1].display-name = "ats"
*.ES_12.app[1].io.destAddress = "ES_18"
*.ES_12.app[1].io.destPort = 24
*.ES_12.app[1].source.productionInterval = 1000us
*.ES_12.app[1].source.initialProductionOffset = 1000us
*.ES_12.app[1].source.packetLength = 1953B
*.ES_12.app[2].typename = "UdpSinkApp"
*.ES_12.app[2].io.localPort = 10
*.ES_13.app[0..1].typename = "UdpSourceApp"
*.ES_13.app[0].display-name = "ats"
*.ES_13.app[0].io.destAddress = "ES_34"
*.ES_13.app[0].io.destPort = 25
*.ES_13.app[0].source.productionInterval = 500us
*.ES_13.app[0].source.initialProductionOffset = 500us
*.ES_13.app[0].source.packetLength = 1946B
*.ES_13.app[1].display-name = "ats"
*.ES_13.app[1].io.destAddress = "ES_15"
*.ES_13.app[1].io.destPort = 26
*.ES_13.app[1].source.productionInterval = 1000us
*.ES_13.app[1].source.initialProductionOffset = 1000us
*.ES_13.app[1].source.packetLength = 1685B
*.ES_13.app[2..3].typename = "UdpSinkApp"
*.ES_13.app[2].io.localPort = 44
*.ES_13.app[3].io.localPort = 112
*.ES_14.app[0..1].typename = "UdpSourceApp"
*.ES_14.app[0].display-name = "ats"
*.ES_14.app[0].io.destAddress = "ES_43"
*.ES_14.app[0].io.destPort = 27
*.ES_14.app[0].source.productionInterval = 1000us
*.ES_14.app[0].source.initialProductionOffset = 1000us
*.ES_14.app[0].source.packetLength = 902B
*.ES_14.app[1].display-name = "ats"
*.ES_14.app[1].io.destAddress = "ES_28"
*.ES_14.app[1].io.destPort = 28
*.ES_14.app[1].source.productionInterval = 500us
*.ES_14.app[1].source.initialProductionOffset = 500us
*.ES_14.app[1].source.packetLength = 1355B
*.ES_14.app[2].typename = "UdpSinkApp"
*.ES_14.app[2].io.localPort = 109
*.ES_15.app[0..1].typename = "UdpSourceApp"
*.ES_15.app[0].display-name = "ats"
*.ES_15.app[0].io.destAddress = "ES_6"
*.ES_15.app[0].io.destPort = 29
*.ES_15.app[0].source.productionInterval = 500us
*.ES_15.app[0].source.initialProductionOffset = 500us
*.ES_15.app[0].source.packetLength = 1399B
*.ES_15.app[1].display-name = "ats"
*.ES_15.app[1].io.destAddress = "ES_1"
*.ES_15.app[1].io.destPort = 30
*.ES_15.app[1].source.productionInterval = 500us
*.ES_15.app[1].source.initialProductionOffset = 500us
*.ES_15.app[1].source.packetLength = 1439B
*.ES_15.app[2..5].typename = "UdpSinkApp"
*.ES_15.app[2].io.localPort = 13
*.ES_15.app[3].io.localPort = 26
*.ES_15.app[4].io.localPort = 52
*.ES_15.app[5].io.localPort = 97
*.ES_16.app[0..1].typename = "UdpSourceApp"
*.ES_16.app[0].display-name = "ats"
*.ES_16.app[0].io.destAddress = "ES_9"
*.ES_16.app[0].io.destPort = 31
*.ES_16.app[0].source.productionInterval = 500us
*.ES_16.app[0].source.initialProductionOffset = 500us
*.ES_16.app[0].source.packetLength = 1764B
*.ES_16.app[1].display-name = "ats"
*.ES_16.app[1].io.destAddress = "ES_37"
*.ES_16.app[1].io.destPort = 32
*.ES_16.app[1].source.productionInterval = 1000us
*.ES_16.app[1].source.initialProductionOffset = 1000us
*.ES_16.app[1].source.packetLength = 1900B
*.ES_16.app[2..3].typename = "UdpSinkApp"
*.ES_16.app[2].io.localPort = 76
*.ES_16.app[3].io.localPort = 100
*.ES_17.app[0..1].typename = "UdpSourceApp"
*.ES_17.app[0].display-name = "ats"
*.ES_17.app[0].io.destAddress = "ES_48"
*.ES_17.app[0].io.destPort = 33
*.ES_17.app[0].source.productionInterval = 500us
*.ES_17.app[0].source.initialProductionOffset = 500us
*.ES_17.app[0].source.packetLength = 1322B
*.ES_17.app[1].display-name = "ats"
*.ES_17.app[1].io.destAddress = "ES_57"
*.ES_17.app[1].io.destPort = 34
*.ES_17.app[1].source.productionInterval = 1000us
*.ES_17.app[1].source.initialProductionOffset = 1000us
*.ES_17.app[1].source.packetLength = 965B
*.ES_17.app[2..4].typename = "UdpSinkApp"
*.ES_17.app[2].io.localPort = 4
*.ES_17.app[3].io.localPort = 50
*.ES_17.app[4].io.localPort = 77
*.ES_18.app[0..1].typename = "UdpSourceApp"
*.ES_18.app[0].display-name = "ats"
*.ES_18.app[0].io.destAddress = "ES_56"
*.ES_18.app[0].io.destPort = 35
*.ES_18.app[0].source.productionInterval = 500us
*.ES_18.app[0].source.initialProductionOffset = 500us
*.ES_18.app[0].source.packetLength = 1324B
*.ES_18.app[1].display-name = "ats"
*.ES_18.app[1].io.destAddress = "ES_28"
*.ES_18.app[1].io.destPort = 36
*.ES_18.app[1].source.productionInterval = 1500us
*.ES_18.app[1].source.initialProductionOffset = 1500us
*.ES_18.app[1].source.packetLength = 1517B
*.ES_18.app[2..5].typename = "UdpSinkApp"
*.ES_18.app[2].io.localPort = 2
*.ES_18.app[3].io.localPort = 24
*.ES_18.app[4].io.localPort = 37
*.ES_18.app[5].io.localPort = 73
*.ES_19.app[0..1].typename = "UdpSourceApp"
*.ES_19.app[0].display-name = "ats"
*.ES_19.app[0].io.destAddress = "ES_18"
*.ES_19.app[0].io.destPort = 37
*.ES_19.app[0].source.productionInterval = 1000us
*.ES_19.app[0].source.initialProductionOffset = 1000us
*.ES_19.app[0].source.packetLength = 1018B
*.ES_19.app[1].display-name = "ats"
*.ES_19.app[1].io.destAddress = "ES_22"
*.ES_19.app[1].io.destPort = 38
*.ES_19.app[1].source.productionInterval = 1500us
*.ES_19.app[1].source.initialProductionOffset = 1500us
*.ES_19.app[1].source.packetLength = 1891B
*.ES_20.app[0..1].typename = "UdpSourceApp"
*.ES_20.app[0].display-name = "ats"
*.ES_20.app[0].io.destAddress = "ES_49"
*.ES_20.app[0].io.destPort = 39
*.ES_20.app[0].source.productionInterval = 1000us
*.ES_20.app[0].source.initialProductionOffset = 1000us
*.ES_20.app[0].source.packetLength = 1682B
*.ES_20.app[1].display-name = "ats"
*.ES_20.app[1].io.destAddress = "ES_49"
*.ES_20.app[1].io.destPort = 40
*.ES_20.app[1].source.productionInterval = 1500us
*.ES_20.app[1].source.initialProductionOffset = 1500us
*.ES_20.app[1].source.packetLength = 1729B
*.ES_20.app[2].typename = "UdpSinkApp"
*.ES_20.app[2].io.localPort = 46
*.ES_21.app[0..1].typename = "UdpSourceApp"
*.ES_21.app[0].display-name = "ats"
*.ES_21.app[0].io.destAddress = "ES_26"
*.ES_21.app[0].io.destPort = 41
*.ES_21.app[0].source.productionInterval = 1000us
*.ES_21.app[0].source.initialProductionOffset = 1000us
*.ES_21.app[0].source.packetLength = 1015B
*.ES_21.app[1].display-name = "ats"
*.ES_21.app[1].io.destAddress = "ES_22"
*.ES_21.app[1].io.destPort = 42
*.ES_21.app[1].source.productionInterval = 1500us
*.ES_21.app[1].source.initialProductionOffset = 1500us
*.ES_21.app[1].source.packetLength = 1902B
*.ES_21.app[2..3].typename = "UdpSinkApp"
*.ES_21.app[2].io.localPort = 54
*.ES_21.app[3].io.localPort = 118
*.ES_22.app[0..1].typename = "UdpSourceApp"
*.ES_22.app[0].display-name = "ats"
*.ES_22.app[0].io.destAddress = "ES_29"
*.ES_22.app[0].io.destPort = 43
*.ES_22.app[0].source.productionInterval = 500us
*.ES_22.app[0].source.initialProductionOffset = 500us
*.ES_22.app[0].source.packetLength = 1726B
*.ES_22.app[1].display-name = "ats"
*.ES_22.app[1].io.destAddress = "ES_13"
*.ES_22.app[1].io.destPort = 44
*.ES_22.app[1].source.productionInterval = 500us
*.ES_22.app[1].source.initialProductionOffset = 500us
*.ES_22.app[1].source.packetLength = 1744B
*.ES_22.app[2..5].typename = "UdpSinkApp"
*.ES_22.app[2].io.localPort = 38
*.ES_22.app[3].io.localPort = 42
*.ES_22.app[4].io.localPort = 78
*.ES_22.app[5].io.localPort = 115
*.ES_23.app[0..1].typename = "UdpSourceApp"
*.ES_23.app[0].display-name = "ats"
*.ES_23.app[0].io.destAddress = "ES_3"
*.ES_23.app[0].io.destPort = 45
*.ES_23.app[0].source.productionInterval = 1000us
*.ES_23.app[0].source.initialProductionOffset = 1000us
*.ES_23.app[0].source.packetLength = 949B
*.ES_23.app[1].display-name = "ats"
*.ES_23.app[1].io.destAddress = "ES_20"
*.ES_23.app[1].io.destPort = 46
*.ES_23.app[1].source.productionInterval = 1000us
*.ES_23.app[1].source.initialProductionOffset = 1000us
*.ES_23.app[1].source.packetLength = 1446B
*.ES_23.app[2..3].typename = "UdpSinkApp"
*.ES_23.app[2].io.localPort = 22
*.ES_23.app[3].io.localPort = 67
*.ES_24.app[0..1].typename = "UdpSourceApp"
*.ES_24.app[0].display-name = "ats"
*.ES_24.app[0].io.destAddress = "ES_46"
*.ES_24.app[0].io.destPort = 47
*.ES_24.app[0].source.productionInterval = 1500us
*.ES_24.app[0].source.initialProductionOffset = 1500us
*.ES_24.app[0].source.packetLength = 1856B
*.ES_24.app[1].display-name = "ats"
*.ES_24.app[1].io.destAddress = "ES_51"
*.ES_24.app[1].io.destPort = 48
*.ES_24.app[1].source.productionInterval = 1000us
*.ES_24.app[1].source.initialProductionOffset = 1000us
*.ES_24.app[1].source.packetLength = 883B
*.ES_24.app[2].typename = "UdpSinkApp"
*.ES_24.app[2].io.localPort = 15
*.ES_25.app[0..1].typename = "UdpSourceApp"
*.ES_25.app[0].display-name = "ats"
*.ES_25.app[0].io.destAddress = "ES_58"
*.ES_25.app[0].io.destPort = 49
*.ES_25.app[0].source.productionInterval = 1500us
*.ES_25.app[0].source.initialProductionOffset = 1500us
*.ES_25.app[0].source.packetLength = 1805B
*.ES_25.app[1].display-name = "ats"
*.ES_25.app[1].io.destAddress = "ES_17"
*.ES_25.app[1].io.destPort = 50
*.ES_25.app[1].source.productionInterval = 500us
*.ES_25.app[1].source.initialProductionOffset = 500us
*.ES_25.app[1].source.packetLength = 1142B
*.ES_25.app[2..4].typename = "UdpSinkApp"
*.ES_25.app[2].io.localPort = 64
*.ES_25.app[3].io.localPort = 66
*.ES_25.app[4].io.localPort = 105
*.ES_26.app[0..1].typename = "UdpSourceApp"
*.ES_26.app[0].display-name = "ats"
*.ES_26.app[0].io.destAddress = "ES_54"
*.ES_26.app[0].io.destPort = 51
*.ES_26.app[0].source.productionInterval = 1000us
*.ES_26.app[0].source.initialProductionOffset = 1000us
*.ES_26.app[0].source.packetLength = 1030B
*.ES_26.app[1].display-name = "ats"
*.ES_26.app[1].io.destAddress = "ES_15"
*.ES_26.app[1].io.destPort = 52
*.ES_26.app[1].source.productionInterval = 1500us
*.ES_26.app[1].source.initialProductionOffset = 1500us
*.ES_26.app[1].source.packetLength = 1001B
*.ES_26.app[2..3].typename = "UdpSinkApp"
*.ES_26.app[2].io.localPort = 41
*.ES_26.app[3].io.localPort = 75
*.ES_27.app[0..1].typename = "UdpSourceApp"
*.ES_27.app[0].display-name = "ats"
*.ES_27.app[0].io.destAddress = "ES_48"
*.ES_27.app[0].io.destPort = 53
*.ES_27.app[0].source.productionInterval = 500us
*.ES_27.app[0].source.initialProductionOffset = 500us
*.ES_27.app[0].source.packetLength = 1439B
*.ES_27.app[1].display-name = "ats"
*.ES_27.app[1].io.destAddress = "ES_21"
*.ES_27.app[1].io.destPort = 54
*.ES_27.app[1].source.productionInterval = 1500us
*.ES_27.app[1].source.initialProductionOffset = 1500us
*.ES_27.app[1].source.packetLength = 1420B
*.ES_27.app[2].typename = "UdpSinkApp"
*.ES_27.app[2].io.localPort = 114
*.ES_28.app[0..1].typename = "UdpSourceApp"
*.ES_28.app[0].display-name = "ats"
*.ES_28.app[0].io.destAddress = "ES_45"
*.ES_28.app[0].io.destPort = 55
*.ES_28.app[0].source.productionInterval = 1000us
*.ES_28.app[0].source.initialProductionOffset = 1000us
*.ES_28.app[0].source.packetLength = 1461B
*.ES_28.app[1].display-name = "ats"
*.ES_28.app[1].io.destAddress = "ES_47"
*.ES_28.app[1].io.destPort = 56
*.ES_28.app[1].source.productionInterval = 1000us
*.ES_28.app[1].source.initialProductionOffset = 1000us
*.ES_28.app[1].source.packetLength = 1193B
*.ES_28.app[2..5].typename = "UdpSinkApp"
*.ES_28.app[2].io.localPort = 28
*.ES_28.app[3].io.localPort = 36
*.ES_28.app[4].io.localPort = 63
*.ES_28.app[5].io.localPort = 107
*.ES_29.app[0..1].typename = "UdpSourceApp"
*.ES_29.app[0].display-name = "ats"
*.ES_29.app[0].io.destAddress = "ES_8"
*.ES_29.app[0].io.destPort = 57
*.ES_29.app[0].source.productionInterval = 1000us
*.ES_29.app[0].source.initialProductionOffset = 1000us
*.ES_29.app[0].source.packetLength = 1110B
*.ES_29.app[1].display-name = "ats"
*.ES_29.app[1].io.destAddress = "ES_55"
*.ES_29.app[1].io.destPort = 58
*.ES_29.app[1].source.productionInterval = 1500us
*.ES_29.app[1].source.initialProductionOffset = 1500us
*.ES_29.app[1].source.packetLength = 1804B
*.ES_29.app[2..6].typename = "UdpSinkApp"
*.ES_29.app[2].io.localPort = 12
*.ES_29.app[3].io.localPort = 21
*.ES_29.app[4].io.localPort = 43
*.ES_29.app[5].io.localPort = 94
*.ES_29.app[6].io.localPort = 116
*.ES_30.app[0..1].typename = "UdpSourceApp"
*.ES_30.app[0].display-name = "ats"
*.ES_30.app[0].io.destAddress = "ES_56"
*.ES_30.app[0].io.destPort = 59
*.ES_30.app[0].source.productionInterval = 1000us
*.ES_30.app[0].source.initialProductionOffset = 1000us
*.ES_30.app[0].source.packetLength = 1763B
*.ES_30.app[1].display-name = "ats"
*.ES_30.app[1].io.destAddress = "ES_58"
*.ES_30.app[1].io.destPort = 60
*.ES_30.app[1].source.productionInterval = 500us
*.ES_30.app[1].source.initialProductionOffset = 500us
*.ES_30.app[1].source.packetLength = 921B
*.ES_31.app[0..1].typename = "UdpSourceApp"
*.ES_31.app[0].display-name = "ats"
*.ES_31.app[0].io.destAddress = "ES_44"
*.ES_31.app[0].io.destPort = 61
*.ES_31.app[0].source.productionInterval = 1000us
*.ES_31.app[0].source.initialProductionOffset = 1000us
*.ES_31.app[0].source.packetLength = 1129B
*.ES_31.app[1].display-name = "ats"
*.ES_31.app[1].io.destAddress = "ES_6"
*.ES_31.app[1].io.destPort = 62
*.ES_31.app[1].source.productionInterval = 500us
*.ES_31.app[1].source.initialProductionOffset = 500us
*.ES_31.app[1].source.packetLength = 805B
*.ES_31.app[2..3].typename = "UdpSinkApp"
*.ES_31.app[2].io.localPort = 74
*.ES_31.app[3].io.localPort = 99
*.ES_32.app[0..1].typename = "UdpSourceApp"
*.ES_32.app[0].display-name = "ats"
*.ES_32.app[0].io.destAddress = "ES_28"
*.ES_32.app[0].io.destPort = 63
*.ES_32.app[0].source.productionInterval = 1500us
*.ES_32.app[0].source.initialProductionOffset = 1500us
*.ES_32.app[0].source.packetLength = 1726B
*.ES_32.app[1].display-name = "ats"
*.ES_32.app[1].io.destAddress = "ES_25"
*.ES_32.app[1].io.destPort = 64
*.ES_32.app[1].source.productionInterval = 1500us
*.ES_32.app[1].source.initialProductionOffset = 1500us
*.ES_32.app[1].source.packetLength = 1165B
*.ES_33.app[0..1].typename = "UdpSourceApp"
*.ES_33.app[0].display-name = "ats"
*.ES_33.app[0].io.destAddress = "ES_42"
*.ES_33.app[0].io.destPort = 65
*.ES_33.app[0].source.productionInterval = 1000us
*.ES_33.app[0].source.initialProductionOffset = 1000us
*.ES_33.app[0].source.packetLength = 1278B
*.ES_33.app[1].display-name = "ats"
*.ES_33.app[1].io.destAddress = "ES_25"
*.ES_33.app[1].io.destPort = 66
*.ES_33.app[1].source.productionInterval = 1500us
*.ES_33.app[1].source.initialProductionOffset = 1500us
*.ES_33.app[1].source.packetLength = 1919B
*.ES_34.app[0..1].typename = "UdpSourceApp"
*.ES_34.app[0].display-name = "ats"
*.ES_34.app[0].io.destAddress = "ES_23"
*.ES_34.app[0].io.destPort = 67
*.ES_34.app[0].source.productionInterval = 1000us
*.ES_34.app[0].source.initialProductionOffset = 1000us
*.ES_34.app[0].source.packetLength = 1031B
*.ES_34.app[1].display-name = "ats"
*.ES_34.app[1].io.destAddress = "ES_47"
*.ES_34.app[1].io.destPort = 68
*.ES_34.app[1].source.productionInterval = 1500us
*.ES_34.app[1].source.initialProductionOffset = 1500us
*.ES_34.app[1].source.packetLength = 1824B
*.ES_34.app[2].typename = "UdpSinkApp"
*.ES_34.app[2].io.localPort = 25
*.ES_35.app[0..1].typename = "UdpSourceApp"
*.ES_35.app[0].display-name = "ats"
*.ES_35.app[0].io.destAddress = "ES_36"
*.ES_35.app[0].io.destPort = 69
*.ES_35.app[0].source.productionInterval = 500us
*.ES_35.app[0].source.initialProductionOffset = 500us
*.ES_35.app[0].source.packetLength = 1021B
*.ES_35.app[1].display-name = "ats"
*.ES_35.app[1].io.destAddress = "ES_50"
*.ES_35.app[1].io.destPort = 70
*.ES_35.app[1].source.productionInterval = 500us
*.ES_35.app[1].source.initialProductionOffset = 500us
*.ES_35.app[1].source.packetLength = 813B
*.ES_35.app[2..5].typename = "UdpSinkApp"
*.ES_35.app[2].io.localPort = 3
*.ES_35.app[3].io.localPort = 9
*.ES_35.app[4].io.localPort = 84
*.ES_35.app[5].io.localPort = 95
*.ES_36.app[0..1].typename = "UdpSourceApp"
*.ES_36.app[0].display-name = "ats"
*.ES_36.app[0].io.destAddress = "ES_44"
*.ES_36.app[0].io.destPort = 71
*.ES_36.app[0].source.productionInterval = 500us
*.ES_36.app[0].source.initialProductionOffset = 500us
*.ES_36.app[0].source.packetLength = 1470B
*.ES_36.app[1].display-name = "ats"
*.ES_36.app[1].io.destAddress = "ES_6"
*.ES_36.app[1].io.destPort = 72
*.ES_36.app[1].source.productionInterval = 1500us
*.ES_36.app[1].source.initialProductionOffset = 1500us
*.ES_36.app[1].source.packetLength = 954B
*.ES_36.app[2..4].typename = "UdpSinkApp"
*.ES_36.app[2].io.localPort = 19
*.ES_36.app[3].io.localPort = 69
*.ES_36.app[4].io.localPort = 102
*.ES_37.app[0..1].typename = "UdpSourceApp"
*.ES_37.app[0].display-name = "ats"
*.ES_37.app[0].io.destAddress = "ES_18"
*.ES_37.app[0].io.destPort = 73
*.ES_37.app[0].source.productionInterval = 500us
*.ES_37.app[0].source.initialProductionOffset = 500us
*.ES_37.app[0].source.packetLength = 1806B
*.ES_37.app[1].display-name = "ats"
*.ES_37.app[1].io.destAddress = "ES_31"
*.ES_37.app[1].io.destPort = 74
*.ES_37.app[1].source.productionInterval = 1000us
*.ES_37.app[1].source.initialProductionOffset = 1000us
*.ES_37.app[1].source.packetLength = 1618B
*.ES_37.app[2..3].typename = "UdpSinkApp"
*.ES_37.app[2].io.localPort = 32
*.ES_37.app[3].io.localPort = 81
*.ES_38.app[0..1].typename = "UdpSourceApp"
*.ES_38.app[0].display-name = "ats"
*.ES_38.app[0].io.destAddress = "ES_26"
*.ES_38.app[0].io.destPort = 75
*.ES_38.app[0].source.productionInterval = 1500us
*.ES_38.app[0].source.initialProductionOffset = 1500us
*.ES_38.app[0].source.packetLength = 1384B
*.ES_38.app[1].display-name = "ats"
*.ES_38.app[1].io.destAddress = "ES_16"
*.ES_38.app[1].io.destPort = 76
*.ES_38.app[1].source.productionInterval = 1500us
*.ES_38.app[1].source.initialProductionOffset = 1500us
*.ES_38.app[1].source.packetLength = 1297B
*.ES_38.app[2..4].typename = "UdpSinkApp"
*.ES_38.app[2].io.localPort = 1
*.ES_38.app[3].io.localPort = 86
*.ES_38.app[4].io.localPort = 93
*.ES_39.app[0..1].typename = "UdpSourceApp"
*.ES_39.app[0].display-name = "ats"
*.ES_39.app[0].io.destAddress = "ES_17"
*.ES_39.app[0].io.destPort = 77
*.ES_39.app[0].source.productionInterval = 500us
*.ES_39.app[0].source.initialProductionOffset = 500us
*.ES_39.app[0].source.packetLength = 1039B
*.ES_39.app[1].display-name = "ats"
*.ES_39.app[1].io.destAddress = "ES_22"
*.ES_39.app[1].io.destPort = 78
*.ES_39.app[1].source.productionInterval = 500us
*.ES_39.app[1].source.initialProductionOffset = 500us
*.ES_39.app[1].source.packetLength = 1653B
*.ES_40.app[0..1].typename = "UdpSourceApp"
*.ES_40.app[0].display-name = "ats"
*.ES_40.app[0].io.destAddress = "ES_10"
*.ES_40.app[0].io.destPort = 79
*.ES_40.app[0].source.productionInterval = 1500us
*.ES_40.app[0].source.initialProductionOffset = 1500us
*.ES_40.app[0].source.packetLength = 1367B
*.ES_40.app[1].display-name = "ats"
*.ES_40.app[1].io.destAddress = "ES_4"
*.ES_40.app[1].io.destPort = 80
*.ES_40.app[1].source.productionInterval = 1500us
*.ES_40.app[1].source.initialProductionOffset = 1500us
*.ES_40.app[1].source.packetLength = 1177B
*.ES_40.app[2..3].typename = "UdpSinkApp"
*.ES_40.app[2].io.localPort = 7
*.ES_40.app[3].io.localPort = 87
*.ES_41.app[0..1].typename = "UdpSourceApp"
*.ES_41.app[0].display-name = "ats"
*.ES_41.app[0].io.destAddress = "ES_37"
*.ES_41.app[0].io.destPort = 81
*.ES_41.app[0].source.productionInterval = 500us
*.ES_41.app[0].source.initialProductionOffset = 500us
*.ES_41.app[0].source.packetLength = 876B
*.ES_41.app[1].display-name = "ats"
*.ES_41.app[1].io.destAddress = "ES_59"
*.ES_41.app[1].io.destPort = 82
*.ES_41.app[1].source.productionInterval = 1500us
*.ES_41.app[1].source.initialProductionOffset = 1500us
*.ES_41.app[1].source.packetLength = 985B
*.ES_41.app[2].typename = "UdpSinkApp"
*.ES_41.app[2].io.localPort = 101
*.ES_42.app[0..1].typename = "UdpSourceApp"
*.ES_42.app[0].display-name = "ats"
*.ES_42.app[0].io.destAddress = "ES_47"
*.ES_42.app[0].io.destPort = 83
*.ES_42.app[0].source.productionInterval = 1500us
*.ES_42.app[0].source.initialProductionOffset = 1500us
*.ES_42.app[0].source.packetLength = 1904B
*.ES_42.app[1].display-name = "ats"
*.ES_42.app[1].io.destAddress = "ES_35"
*.ES_42.app[1].io.destPort = 84
*.ES_42.app[1].source.productionInterval = 1500us
*.ES_42.app[1].source.initialProductionOffset = 1500us
*.ES_42.app[1].source.packetLength = 1484B
*.ES_42.app[2].typename = "UdpSinkApp"
*.ES_42.app[2].io.localPort = 65
*.ES_43.app[0..1].typename = "UdpSourceApp"
*.ES_43.app[0].display-name = "ats"
*.ES_43.app[0].io.destAddress = "ES_58"
*.ES_43.app[0].io.destPort = 85
*.ES_43.app[0].source.productionInterval = 1500us
*.ES_43.app[0].source.initialProductionOffset = 1500us
*.ES_43.app[0].source.packetLength = 914B
*.ES_43.app[1].display-name = "ats"
*.ES_43.app[1].io.destAddress = "ES_38"
*.ES_43.app[1].io.destPort = 86
*.ES_43.app[1].source.productionInterval = 1500us
*.ES_43.app[1].source.initialProductionOffset = 1500us
*.ES_43.app[1].source.packetLength = 1930B
*.ES_43.app[2..3].typename = "UdpSinkApp"
*.ES_43.app[2].io.localPort = 27
*.ES_43.app[3].io.localPort = 117
*.ES_44.app[0..1].typename = "UdpSourceApp"
*.ES_44.app[0].display-name = "ats"
*.ES_44.app[0].io.destAddress = "ES_40"
*.ES_44.app[0].io.destPort = 87
*.ES_44.app[0].source.productionInterval = 1500us