[General]
network = tsn.TSN_Network
sim-time-limit = 1.0s

# enable multiple canvas visualizers
*.visualizer.typename = "IntegratedMultiCanvasVisualizer"

# network route activity visualization
*.visualizer.numNetworkRouteVisualizers = 1
*.visualizer.networkRouteVisualizer[*].displayRoutes = true
*.visualizer.networkRouteVisualizer[0].packetFilter = "\"ats*\""
*.visualizer.networkRouteVisualizer[0].lineColor = "red1"

*.*.eth[*].bitrate = 1Gbps

# packet processing delay
*.*.bridging.directionReverser.delayer.typename = "PacketDelayer"
*.*.bridging.directionReverser.delayer.delay = 8us

*.ES_1.numApps = 12
*.ES_2.numApps = 7
*.ES_3.numApps = 11
*.ES_4.numApps = 4
*.ES_5.numApps = 5
*.ES_6.numApps = 5
*.ES_7.numApps = 9
*.ES_8.numApps = 5
*.ES_9.numApps = 5
*.ES_10.numApps = 5
*.ES_11.numApps = 5
*.ES_12.numApps = 6
*.ES_13.numApps = 7
*.ES_14.numApps = 8
*.ES_15.numApps = 5
*.ES_16.numApps = 7
*.ES_17.numApps = 5
*.ES_18.numApps = 7
*.ES_19.numApps = 5
*.ES_20.numApps = 5
*.ES_21.numApps = 5
*.ES_22.numApps = 6
*.ES_23.numApps = 5
*.ES_24.numApps = 8
*.ES_25.numApps = 4
*.ES_26.numApps = 4
*.ES_27.numApps = 6
*.ES_28.numApps = 4
*.ES_29.numApps = 6
*.ES_30.numApps = 4
*.ES_31.numApps = 6
*.ES_32.numApps = 4
*.ES_33.numApps = 5
*.ES_34.numApps = 5
*.ES_35.numApps = 8
*.ES_36.numApps = 4
*.ES_37.numApps = 7
*.ES_38.numApps = 7
*.ES_39.numApps = 4
*.ES_40.numApps = 4
*.ES_41.numApps = 7
*.ES_42.numApps = 4
*.ES_43.numApps = 6
*.ES_44.numApps = 6
*.ES_45.numApps = 3
*.ES_46.numApps = 9
*.ES_47.numApps = 7
*.ES_48.numApps = 9
*.ES_49.numApps = 3
*.ES_50.numApps = 6
*.ES_51.numApps = 5
*.ES_52.numApps = 5
*.ES_53.numApps = 7
*.ES_54.numApps = 8
*.ES_55.numApps = 7
*.ES_56.numApps = 4
*.ES_57.numApps = 9
*.ES_58.numApps = 5
*.ES_59.numApps = 7
*.ES_60.numApps = 7
*.ES_61.numApps = 4
*.ES_62.numApps = 7
*.ES_63.numApps = 6
*.ES_64.numApps = 6
*.ES_65.numApps = 4
*.ES_66.numApps = 5
*.ES_67.numApps = 8
*.ES_68.numApps = 6
*.ES_69.numApps = 4
*.ES_70.numApps = 4
*.ES_71.numApps = 9
*.ES_72.numApps = 10
*.ES_73.numApps = 5
*.ES_74.numApps = 6
*.ES_75.numApps = 6
*.ES_76.numApps = 5
*.ES_77.numApps = 4
*.ES_78.numApps = 7
*.ES_79.numApps = 9
*.ES_80.numApps = 7
*.ES_1.app[0..2].typename = "UdpSourceApp"
*.ES_1.app[0].display-name = "ats"
*.ES_1.app[0].io.destAddress = "ES_11"
*.ES_1.app[0].io.destPort = 1
*.ES_1.app[0].source.productionInterval = 500us
*.ES_1.app[0].source.initialProductionOffset = 500us
*.ES_1.app[0].source.packetLength = 583B
*.ES_1.app[1].display-name = "ats"
*.ES_1.app[1].io.destAddress = "ES_27"
*.ES_1.app[1].io.destPort = 2
*.ES_1.app[1].source.productionInterval = 500us
*.ES_1.app[1].source.initialProductionOffset = 500us
*.ES_1.app[1].source.packetLength = 693B
*.ES_1.app[2].display-name = "ats"
*.ES_1.app[2].io.destAddress = "ES_72"
*.ES_1.app[2].io.destPort = 3
*.ES_1.app[2].source.productionInterval = 1000us
*.ES_1.app[2].source.initialProductionOffset = 1000us
*.ES_1.app[2].source.packetLength = 775B
*.ES_1.app[3..11].typename = "UdpSinkApp"
*.ES_1.app[3].io.localPort = 65
*.ES_1.app[4].io.localPort = 79
*.ES_1.app[5].io.localPort = 90
*.ES_1.app[6].io.localPort = 142
*.ES_1.app[7].io.localPort = 206
*.ES_1.app[8].io.localPort = 211
*.ES_1.app[9].io.localPort = 213
*.ES_1.app[10].io.localPort = 219
*.ES_1.app[11].io.localPort = 230
*.ES_2.app[0..2].typename = "UdpSourceApp"
*.ES_2.app[0].display-name = "ats"
*.ES_2.app[0].io.destAddress = "ES_71"
*.ES_2.app[0].io.destPort = 4
*.ES_2.app[0].source.productionInterval = 1000us
*.ES_2.app[0].source.initialProductionOffset = 1000us
*.ES_2.app[0].source.packetLength = 526B
*.ES_2.app[1].display-name = "ats"
*.ES_2.app[1].io.destAddress = "ES_36"
*.ES_2.app[1].io.destPort = 5
*.ES_2.app[1].source.productionInterval = 500us
*.ES_2.app[1].source.initialProductionOffset = 500us
*.ES_2.app[1].source.packetLength = 616B
*.ES_2.app[2].display-name = "ats"
*.ES_2.app[2].io.destAddress = "ES_37"
*.ES_2.app[2].io.destPort = 6
*.ES_2.app[2].source.productionInterval = 1000us
*.ES_2.app[2].source.initialProductionOffset = 1000us
*.ES_2.app[2].source.packetLength = 563B
*.ES_2.app[3..6].typename = "UdpSinkApp"
*.ES_2.app[3].io.localPort = 29
*.ES_2.app[4].io.localPort = 118
*.ES_2.app[5].io.localPort = 205
*.ES_2.app[6].io.localPort = 221
*.ES_3.app[0..2].typename = "UdpSourceApp"
*.ES_3.app[0].display-name = "ats"
*.ES_3.app[0].io.destAddress = "ES_62"
*.ES_3.app[0].io.destPort = 7
*.ES_3.app[0].source.productionInterval = 1000us
*.ES_3.app[0].source.initialProductionOffset = 1000us
*.ES_3.app[0].source.packetLength = 684B
*.ES_3.app[1].display-name = "ats"
*.ES_3.app[1].io.destAddress = "ES_29"
*.ES_3.app[1].io.destPort = 8
*.ES_3.app[1].source.productionInterval = 500us
*.ES_3.app[1].source.initialProductionOffset = 500us
*.ES_3.app[1].source.packetLength = 535B
*.ES_3.app[2].display-name = "ats"
*.ES_3.app[2].io.destAddress = "ES_80"
*.ES_3.app[2].io.destPort = 9
*.ES_3.app[2].source.productionInterval = 1000us
*.ES_3.app[2].source.initialProductionOffset = 1000us
*.ES_3.app[2].source.packetLength = 631B
*.ES_3.app[3..10].typename = "UdpSinkApp"
*.ES_3.app[3].io.localPort = 36
*.ES_3.app[4].io.localPort = 80
*.ES_3.app[5].io.localPort = 115
*.ES_3.app[6].io.localPort = 143
*.ES_3.app[7].io.localPort = 174
*.ES_3.app[8].io.localPort = 181
*.ES_3.app[9].io.localPort = 207
*.ES_3.app[10].io.localPort = 231
*.ES_4.app[0..2].typename = "UdpSourceApp"
*.ES_4.app[0].display-name = "ats"
*.ES_4.app[0].io.destAddress = "ES_79"
*.ES_4.app[0].io.destPort = 10
*.ES_4.app[0].source.productionInterval = 500us
*.ES_4.app[0].source.initialProductionOffset = 500us
*.ES_4.app[0].source.packetLength = 578B
*.ES_4.app[1].display-name = "ats"
*.ES_4.app[1].io.destAddress = "ES_48"
*.ES_4.app[1].io.destPort = 11
*.ES_4.app[1].source.productionInterval = 500us
*.ES_4.app[1].source.initialProductionOffset = 500us
*.ES_4.app[1].source.packetLength = 575B
*.ES_4.app[2].display-name = "ats"
*.ES_4.app[2].io.destAddress = "ES_28"
*.ES_4.app[2].io.destPort = 12
*.ES_4.app[2].source.productionInterval = 1000us
*.ES_4.app[2].source.initialProductionOffset = 1000us
*.ES_4.app[2].source.packetLength = 523B
*.ES_4.app[3].typename = "UdpSinkApp"
*.ES_4.app[3].io.localPort = 137
*.ES_5.app[0..2].typename = "UdpSourceApp"
*.ES_5.app[0].display-name = "ats"
*.ES_5.app[0].io.destAddress = "ES_55"
*.ES_5.app[0].io.destPort = 13
*.ES_5.app[0].source.productionInterval = 500us
*.ES_5.app[0].source.initialProductionOffset = 500us
*.ES_5.app[0].source.packetLength = 566B
*.ES_5.app[1].display-name = "ats"
*.ES_5.app[1].io.destAddress = "ES_54"
*.ES_5.app[1].io.destPort = 14
*.ES_5.app[1].source.productionInterval = 500us
*.ES_5.app[1].source.initialProductionOffset = 500us
*.ES_5.app[1].source.packetLength = 675B
*.ES_5.app[2].display-name = "ats"
*.ES_5.app[2].io.destAddress = "ES_66"
*.ES_5.app[2].io.destPort = 15
*.ES_5.app[2].source.productionInterval = 1000us
*.ES_5.app[2].source.initialProductionOffset = 1000us
*.ES_5.app[2].source.packetLength = 664B
*.ES_5.app[3..4].typename = "UdpSinkApp"
*.ES_5.app[3].io.localPort = 126
*.ES_5.app[4].io.localPort = 170
*.ES_6.app[0..2].typename = "UdpSourceApp"
*.ES_6.app[0].display-name = "ats"
*.ES_6.app[0].io.destAddress = "ES_37"
*.ES_6.app[0].io.destPort = 16
*.ES_6.app[0].source.productionInterval = 1000us
*.ES_6.app[0].source.initialProductionOffset = 1000us
*.ES_6.app[0].source.packetLength = 627B
*.ES_6.app[1].display-name = "ats"
*.ES_6.app[1].io.destAddress = "ES_29"
*.ES_6.app[1].io.destPort = 17
*.ES_6.app[1].source.productionInterval = 1000us
*.ES_6.app[1].source.initialProductionOffset = 1000us
*.ES_6.app[1].source.packetLength = 669B
*.ES_6.app[2].display-name = "ats"
*.ES_6.app[2].io.destAddress = "ES_38"
*.ES_6.app[2].io.destPort = 18
*.ES_6.app[2].source.productionInterval = 1000us
*.ES_6.app[2].source.initialProductionOffset = 1000us
*.ES_6.app[2].source.packetLength = 671B
*.ES_6.app[3..4].typename = "UdpSinkApp"
*.ES_6.app[3].io.localPort = 132
*.ES_6.app[4].io.localPort = 196
*.ES_7.app[0..2].typename = "UdpSourceApp"
*.ES_7.app[0].display-name = "ats"
*.ES_7.app[0].io.destAddress = "ES_79"
*.ES_7.app[0].io.destPort = 19
*.ES_7.app[0].source.productionInterval = 500us
*.ES_7.app[0].source.initialProductionOffset = 500us
*.ES_7.app[0].source.packetLength = 508B
*.ES_7.app[1].display-name = "ats"
*.ES_7.app[1].io.destAddress = "ES_41"
*.ES_7.app[1].io.destPort = 20
*.ES_7.app[1].source.productionInterval = 1000us
*.ES_7.app[1].source.initialProductionOffset = 1000us
*.ES_7.app[1].source.packetLength = 724B
*.ES_7.app[2].display-name = "ats"
*.ES_7.app[2].io.destAddress = "ES_57"
*.ES_7.app[2].io.destPort = 21
*.ES_7.app[2].source.productionInterval = 1000us
*.ES_7.app[2].source.initialProductionOffset = 1000us
*.ES_7.app[2].source.packetLength = 765B
*.ES_7.app[3..8].typename = "UdpSinkApp"
*.ES_7.app[3].io.localPort = 46
*.ES_7.app[4].io.localPort = 53
*.ES_7.app[5].io.localPort = 144
*.ES_7.app[6].io.localPort = 171
*.ES_7.app[7].io.localPort = 173
*.ES_7.app[8].io.localPort = 233
*.ES_8.app[0..2].typename = "UdpSourceApp"
*.ES_8.app[0].display-name = "ats"
*.ES_8.app[0].io.destAddress = "ES_57"
*.ES_8.app[0].io.destPort = 22
*.ES_8.app[0].source.productionInterval = 1000us
*.ES_8.app[0].source.initialProductionOffset = 1000us
*.ES_8.app[0].source.packetLength = 782B
*.ES_8.app[1].display-name = "ats"
*.ES_8.app[1].io.destAddress = "ES_73"
*.ES_8.app[1].io.destPort = 23
*.ES_8.app[1].source.productionInterval = 500us
*.ES_8.app[1].source.initialProductionOffset = 500us
*.ES_8.app[1].source.packetLength = 547B
*.ES_8.app[2].display-name = "ats"
*.ES_8.app[2].io.destAddress = "ES_53"
*.ES_8.app[2].io.destPort = 24
*.ES_8.app[2].source.productionInterval = 1000us
*.ES_8.app[2].source.initialProductionOffset = 1000us
*.ES_8.app[2].source.packetLength = 675B
*.ES_8.app[3..4].typename = "UdpSinkApp"
*.ES_8.app[3].io.localPort = 99
*.ES_8.app[4].io.localPort = 131
*.ES_9.app[0..2].typename = "UdpSourceApp"
*.ES_9.app[0].display-name = "ats"
*.ES_9.app[0].io.destAddress = "ES_63"
*.ES_9.app[0].io.destPort = 25
*.ES_9.app[0].source.productionInterval = 1000us
*.ES_9.app[0].source.initialProductionOffset = 1000us
*.ES_9.app[0].source.packetLength = 598B
*.ES_9.app[1].display-name = "ats"
*.ES_9.app[1].io.destAddress = "ES_14"
*.ES_9.app[1].io.destPort = 26
*.ES_9.app[1].source.productionInterval = 500us
*.ES_9.app[1].source.initialProductionOffset = 500us
*.ES_9.app[1].source.packetLength = 746B
*.ES_9.app[2].display-name = "ats"
*.ES_9.app[2].io.destAddress = "ES_27"
*.ES_9.app[2].io.destPort = 27
*.ES_9.app[2].source.productionInterval = 1000us
*.ES_9.app[2].source.initialProductionOffset = 1000us
*.ES_9.app[2].source.packetLength = 631B
*.ES_9.app[3..4].typename = "UdpSinkApp"
*.ES_9.app[3].io.localPort = 52
*.ES_9.app[4].io.localPort = 107
*.ES_10.app[0..2].typename = "UdpSourceApp"
*.ES_10.app[0].display-name = "ats"
*.ES_10.app[0].io.destAddress = "ES_30"
*.ES_10.app[0].io.destPort = 28
*.ES_10.app[0].source.productionInterval = 1000us
*.ES_10.app[0].source.initialProductionOffset = 1000us
*.ES_10.app[0].source.packetLength = 515B
*.ES_10.app[1].display-name = "ats"
*.ES_10.app[1].io.destAddress = "ES_2"
*.ES_10.app[1].io.destPort = 29
*.ES_10.app[1].source.productionInterval = 1000us
*.ES_10.app[1].source.initialProductionOffset = 1000us
*.ES_10.app[1].source.packetLength = 771B
*.ES_10.app[2].display-name = "ats"
*.ES_10.app[2].io.destAddress = "ES_71"
*.ES_10.app[2].io.destPort = 30
*.ES_10.app[2].source.productionInterval = 1000us
*.ES_10.app[2].source.initialProductionOffset = 1000us
*.ES_10.app[2].source.packetLength = 514B
*.ES_10.app[3..4].typename = "UdpSinkApp"
*.ES_10.app[3].io.localPort = 43
*.ES_10.app[4].io.localPort = 62
*.ES_11.app[0..2].typename = "UdpSourceApp"
*.ES_11.app[0].display-name = "ats"
*.ES_11.app[0].io.destAddress = "ES_48"
*.ES_11.app[0].io.destPort = 31
*.ES_11.app[0].source.productionInterval = 500us
*.ES_11.app[0].source.initialProductionOffset = 500us
*.ES_11.app[0].source.packetLength = 527B
*.ES_11.app[1].display-name = "ats"
*.ES_11.app[1].io.destAddress = "ES_44"
*.ES_11.app[1].io.destPort = 32
*.ES_11.app[1].source.productionInterval = 500us
*.ES_11.app[1].source.initialProductionOffset = 500us
*.ES_11.app[1].source.packetLength = 752B
*.ES_11.app[2].display-name = "ats"
*.ES_11.app[2].io.destAddress = "ES_72"
*.ES_11.app[2].io.destPort = 33
*.ES_11.app[2].source.productionInterval = 1000us
*.ES_11.app[2].source.initialProductionOffset = 1000us
*.ES_11.app[2].source.packetLength = 611B
*.ES_11.app[3..4].typename = "UdpSinkApp"
*.ES_11.app[3].io.localPort = 1
*.ES_11.app[4].io.localPort = 109
*.ES_12.app[0..2].typename = "UdpSourceApp"
*.ES_12.app[0].display-name = "ats"
*.ES_12.app[0].io.destAddress = "ES_56"
*.ES_12.app[0].io.destPort = 34
*.ES_12.app[0].source.productionInterval = 1000us
*.ES_12.app[0].source.initialProductionOffset = 1000us
*.ES_12.app[0].source.packetLength = 746B
*.ES_12.app[1].display-name = "ats"
*.ES_12.app[1].io.destAddress = "ES_37"
*.ES_12.app[1].io.destPort = 35
*.ES_12.app[1].source.productionInterval = 1000us
*.ES_12.app[1].source.initialProductionOffset = 1000us
*.ES_12.app[1].source.packetLength = 798B
*.ES_12.app[2].display-name = "ats"
*.ES_12.app[2].io.destAddress = "ES_3"
*.ES_12.app[2].io.destPort = 36
*.ES_12.app[2].source.productionInterval = 500us
*.ES_12.app[2].source.initialProductionOffset = 500us
*.ES_12.app[2].source.packetLength = 560B
*.ES_12.app[3..5].typename = "UdpSinkApp"
*.ES_12.app[3].io.localPort = 103
*.ES_12.app[4].io.localPort = 179
*.ES_12.app[5].io.localPort = 220
*.ES_13.app[0..2].typename = "UdpSourceApp"
*.ES_13.app[0].display-name = "ats"
*.ES_13.app[0].io.destAddress = "ES_38"
*.ES_13.app[0].io.destPort = 37
*.ES_13.app[0].source.productionInterval = 1000us
*.ES_13.app[0].source.initialProductionOffset = 1000us
*.ES_13.app[0].source.packetLength = 591B
*.ES_13.app[1].display-name = "ats"
*.ES_13.app[1].io.destAddress = "ES_68"
*.ES_13.app[1].io.destPort = 38
*.ES_13.app[1].source.productionInterval = 1000us
*.ES_13.app[1].source.initialProductionOffset = 1000us
*.ES_13.app[1].source.packetLength = 589B
*.ES_13.app[2].display-name = "ats"
*.ES_13.app[2].io.destAddress = "ES_54"
*.ES_13.app[2].io.destPort = 39
*.ES_13.app[2].source.productionInterval = 500us
*.ES_13.app[2].source.initialProductionOffset = 500us
*.ES_13.app[2].source.packetLength = 571B
*.ES_13.app[3..6].typename = "UdpSinkApp"
*.ES_13.app[3].io.localPort = 54
*.ES_13.app[4].io.localPort = 101
*.ES_13.app[5].io.localPort = 106
*.ES_13.app[6].io.localPort = 236
*.ES_14.app[0..2].typename = "UdpSourceApp"
*.ES_14.app[0].display-name = "ats"
*.ES_14.app[0].io.destAddress = "ES_46"
*.ES_14.app[0].io.destPort = 40
*.ES_14.app[0].source.productionInterval = 1000us
*.ES_14.app[0].source.initialProductionOffset = 1000us
*.ES_14.app[0].source.packetLength = 616B
*.ES_14.app[1].display-name = "ats"
*.ES_14.app[1].io.destAddress = "ES_46"
*.ES_14.app[1].io.destPort = 41
*.ES_14.app[1].source.productionInterval = 1000us
*.ES_14.app[1].source.initialProductionOffset = 1000us
*.ES_14.app[1].source.packetLength = 709B
*.ES_14.app[2].display-name = "ats"
*.ES_14.app[2].io.destAddress = "ES_74"
*.ES_14.app[2].io.destPort = 42
*.ES_14.app[2].source.productionInterval = 1000us
*.ES_14.app[2].source.initialProductionOffset = 1000us
*.ES_14.app[2].source.packetLength = 797B
*.ES_14.app[3..7].typename = "UdpSinkApp"
*.ES_14.app[3].io.localPort = 26
*.ES_14.app[4].io.localPort = 68
*.ES_14.app[5].io.localPort = 89
*.ES_14.app[6].io.localPort = 188
*.ES_14.app[7].io.localPort = 216
*.ES_15.app[0..2].typename = "UdpSourceApp"
*.ES_15.app[0].display-name = "ats"
*.ES_15.app[0].io.destAddress = "ES_10"
*.ES_15.app[0].io.destPort = 43
*.ES_15.app[0].source.productionInterval = 1000us
*.ES_15.app[0].source.initialProductionOffset = 1000us
*.ES_15.app[0].source.packetLength = 601B
*.ES_15.app[1].display-name = "ats"
*.ES_15.app[1].io.destAddress = "ES_43"
*.ES_15.app[1].io.destPort = 44
*.ES_15.app[1].source.productionInterval = 1000us
*.ES_15.app[1].source.initialProductionOffset = 1000us
*.ES_15.app[1].source.packetLength = 500B
*.ES_15.app[2].display-name = "ats"
*.ES_15.app[2].io.destAddress = "ES_46"
*.ES_15.app[2].io.destPort = 45
*.ES_15.app[2].source.productionInterval = 1000us
*.ES_15.app[2].source.initialProductionOffset = 1000us
*.ES_15.app[2].source.packetLength = 606B
*.ES_15.app[3..4].typename = "UdpSinkApp"
*.ES_15.app[3].io.localPort = 111
*.ES_15.app[4].io.localPort = 195
*.ES_16.app[0..2].typename = "UdpSourceApp"
*.ES_16.app[0].display-name = "ats"
*.ES_16.app[0].io.destAddress = "ES_7"
*.ES_16.app[0].io.destPort = 46
*.ES_16.app[0].source.productionInterval = 1000us
*.ES_16.app[0].source.initialProductionOffset = 1000us
*.ES_16.app[0].source.packetLength = 645B
*.ES_16.app[1].display-name = "ats"
*.ES_16.app[1].io.destAddress = "ES_72"
*.ES_16.app[1].io.destPort = 47
*.ES_16.app[1].source.productionInterval = 1000us
*.ES_16.app[1].source.initialProductionOffset = 1000us
*.ES_16.app[1].source.packetLength = 797B
*.ES_16.app[2].display-name = "ats"
*.ES_16.app[2].io.destAddress = "ES_42"
*.ES_16.app[2].io.destPort = 48
*.ES_16.app[2].source.productionInterval = 1000us
*.ES_16.app[2].source.initialProductionOffset = 1000us
*.ES_16.app[2].source.packetLength = 681B
*.ES_16.app[3..6].typename = "UdpSinkApp"
*.ES_16.app[3].io.localPort = 121
*.ES_16.app[4].io.localPort = 189
*.ES_16.app[5].io.localPort = 203
*.ES_16.app[6].io.localPort = 232
*.ES_17.app[0..2].typename = "UdpSourceApp"
*.ES_17.app[0].display-name = "ats"
*.ES_17.app[0].io.destAddress = "ES_24"
*.ES_17.app[0].io.destPort = 49
*.ES_17.app[0].source.productionInterval = 1000us
*.ES_17.app[0].source.initialProductionOffset = 1000us
*.ES_17.app[0].source.packetLength = 724B
*.ES_17.app[1].display-name = "ats"
*.ES_17.app[1].io.destAddress = "ES_54"
*.ES_17.app[1].io.destPort = 50
*.ES_17.app[1].source.productionInterval = 500us
*.ES_17.app[1].source.initialProductionOffset = 500us
*.ES_17.app[1].source.packetLength = 580B
*.ES_17.app[2].display-name = "ats"
*.ES_17.app[2].io.destAddress = "ES_33"
*.ES_17.app[2].io.destPort = 51
*.ES_17.app[2].source.productionInterval = 1000us
*.ES_17.app[2].source.initialProductionOffset = 1000us
*.ES_17.app[2].source.packetLength = 603B
*.ES_17.app[3..4].typename = "UdpSinkApp"
*.ES_17.app[3].io.localPort = 72
*.ES_17.app[4].io.localPort = 100
*.ES_18.app[0..2].typename = "UdpSourceApp"
*.ES_18.app[0].display-name = "ats"
*.ES_18.app[0].io.destAddress = "ES_9"
*.ES_18.app[0].io.destPort = 52
*.ES_18.app[0].source.productionInterval = 500us
*.ES_18.app[0].source.initialProductionOffset = 500us
*.ES_18.app[0].source.packetLength = 681B
*.ES_18.app[1].display-name = "ats"
*.ES_18.app[1].io.destAddress = "ES_7"
*.ES_18.app[1].io.destPort = 53
*.ES_18.app[1].source.productionInterval = 1000us
*.ES_18.app[1].source.initialProductionOffset = 1000us
*.ES_18.app[1].source.packetLength = 635B
*.ES_18.app[2].display-name = "ats"
*.ES_18.app[2].io.destAddress = "ES_13"
*.ES_18.app[2].io.destPort = 54
*.ES_18.app[2].source.productionInterval = 500us
*.ES_18.app[2].source.initialProductionOffset = 500us
*.ES_18.app[2].source.packetLength = 748B
*.ES_18.app[3..6].typename = "UdpSinkApp"
*.ES_18.app[3].io.localPort = 64
*.ES_18.app[4].io.localPort = 177
*.ES_18.app[5].io.localPort = 210
*.ES_18.app[6].io.localPort = 229
*.ES_19.app[0..2].typename = "UdpSourceApp"
*.ES_19.app[0].display-name = "ats"
*.ES_19.app[0].io.destAddress = "ES_78"
*.ES_19.app[0].io.destPort = 55
*.ES_19.app[0].source.productionInterval = 500us
*.ES_19.app[0].source.initialProductionOffset = 500us
*.ES_19.app[0].source.packetLength = 652B
*.ES_19.app[1].display-name = "ats"
*.ES_19.app[1].io.destAddress = "ES_55"
*.ES_19.app[1].io.destPort = 56
*.ES_19.app[1].source.productionInterval = 500us
*.ES_19.app[1].source.initialProductionOffset = 500us
*.ES_19.app[1].source.packetLength = 771B
*.ES_19.app[2].display-name = "ats"
*.ES_19.app[2].io.destAddress = "ES_71"
*.ES_19.app[2].io.destPort = 57
*.ES_19.app[2].source.productionInterval = 500us
*.ES_19.app[2].source.initialProductionOffset = 500us
*.ES_19.app[2].source.packetLength = 557B
*.ES_19.app[3..4].typename = "UdpSinkApp"
*.ES_19.app[3].io.localPort = 102
*.ES_19.app[4].io.localPort = 108
*.ES_20.app[0..2].typename = "UdpSourceApp"
*.ES_20.app[0].display-name = "ats"
*.ES_20.app[0].io.destAddress = "ES_51"
*.ES_20.app[0].io.destPort = 58
*.ES_20.app[0].source.productionInterval = 1000us
*.ES_20.app[0].source.initialProductionOffset = 1000us
*.ES_20.app[0].source.packetLength = 739B
*.ES_20.app[1].display-name = "ats"
*.ES_20.app[1].io.destAddress = "ES_73"
*.ES_20.app[1].io.destPort = 59
*.ES_20.app[1].source.productionInterval = 500us
*.ES_20.app[1].source.initialProductionOffset = 500us
*.ES_20.app[1].source.packetLength = 703B
*.ES_20.app[2].display-name = "ats"
*.ES_20.app[2].io.destAddress = "ES_59"
*.ES_20.app[2].io.destPort = 60
*.ES_20.app[2].source.productionInterval = 1000us
*.ES_20.app[2].source.initialProductionOffset = 1000us
*.ES_20.app[2].source.packetLength = 679B
*.ES_20.app[3..4].typename = "UdpSinkApp"
*.ES_20.app[3].io.localPort = 162
*.ES_20.app[4].io.localPort = 168
*.ES_21.app[0..2].typename = "UdpSourceApp"
*.ES_21.app[0].display-name = "ats"
*.ES_21.app[0].io.destAddress = "ES_43"
*.ES_21.app[0].io.destPort = 61
*.ES_21.app[0].source.productionInterval = 1000us
*.ES_21.app[0].source.initialProductionOffset = 1000us
*.ES_21.app[0].source.packetLength = 602B
*.ES_21.app[1].display-name = "ats"
*.ES_21.app[1].io.destAddress = "ES_10"
*.ES_21.app[1].io.destPort = 62
*.ES_21.app[1].source.productionInterval = 1000us
*.ES_21.app[1].source.initialProductionOffset = 1000us
*.ES_21.app[1].source.packetLength = 574B
*.ES_21.app[2].display-name = "ats"
*.ES_21.app[2].io.destAddress = "ES_31"
*.ES_21.app[2].io.destPort = 63
*.ES_21.app[2].source.productionInterval = 1000us
*.ES_21.app[2].source.initialProductionOffset = 1000us
*.ES_21.app[2].source.packetLength = 553B
*.ES_21.app[3..4].typename = "UdpSinkApp"
*.ES_21.app[3].io.localPort = 127
*.ES_21.app[4].io.localPort = 237
*.ES_22.app[0..2].typename = "UdpSourceApp"
*.ES_22.app[0].display-name = "ats"
*.ES_22.app[0].io.destAddress = "ES_18"
*.ES_22.app[0].io.destPort = 64
*.ES_22.app[0].source.productionInterval = 500us
*.ES_22.app[0].source.initialProductionOffset = 500us
*.ES_22.app[0].source.packetLength = 525B
*.ES_22.app[1].display-name = "ats"
*.ES_22.app[1].io.destAddress = "ES_1"
*.ES_22.app[1].io.destPort = 65
*.ES_22.app[1].source.productionInterval = 500us
*.ES_22.app[1].source.initialProductionOffset = 500us
*.ES_22.app[1].source.packetLength = 671B
*.ES_22.app[2].display-name = "ats"
*.ES_22.app[2].io.destAddress = "ES_78"
*.ES_22.app[2].io.destPort = 66
*.ES_22.app[2].source.productionInterval = 1000us
*.ES_22.app[2].source.initialProductionOffset = 1000us
*.ES_22.app[2].source.packetLength = 534B
*.ES_22.app[3..5].typename = "UdpSinkApp"
*.ES_22.app[3].io.localPort = 151
*.ES_22.app[4].io.localPort = 200
*.ES_22.app[5].io.localPort = 209
*.ES_23.app[0..2].typename = "UdpSourceApp"
*.ES_23.app[0].display-name = "ats"
*.ES_23.app[0].io.destAddress = "ES_71"
*.ES_23.app[0].io.destPort = 67
*.ES_23.app[0].source.productionInterval = 500us
*.ES_23.app[0].source.initialProductionOffset = 500us
*.ES_23.app[0].source.packetLength = 517B
*.ES_23.app[1].display-name = "ats"
*.ES_23.app[1].io.destAddress = "ES_14"
*.ES_23.app[1].io.destPort = 68
*.ES_23.app[1].source.productionInterval = 1000us
*.ES_23.app[1].source.initialProductionOffset = 1000us
*.ES_23.app[1].source.packetLength = 658B
*.ES_23.app[2].display-name = "ats"
*.ES_23.app[2].io.destAddress = "ES_74"
*.ES_23.app[2].io.destPort = 69
*.ES_23.app[2].source.productionInterval = 500us
*.ES_23.app[2].source.initialProductionOffset = 500us
*.ES_23.app[2].source.packetLength = 636B
*.ES_23.app[3..4].typename = "UdpSinkApp"
*.ES_23.app[3].io.localPort = 75
*.ES_23.app[4].io.localPort = 125
*.ES_24.app[0..2].typename = "UdpSourceApp"
*.ES_24.app[0].display-name = "ats"
*.ES_24.app[0].io.destAddress = "ES_50"
*.ES_24.app[0].io.destPort = 70
*.ES_24.app[0].source.productionInterval = 1000us
*.ES_24.app[0].source.initialProductionOffset = 1000us
*.ES_24.app[0].source.packetLength = 575B
*.ES_24.app[1].display-name = "ats"
*.ES_24.app[1].io.destAddress = "ES_46"
*.ES_24.app[1].io.destPort = 71
*.ES_24.app[1].source.productionInterval = 1000us
*.ES_24.app[1].source.initialProductionOffset = 1000us
*.ES_24.app[1].source.packetLength = 759B
*.ES_24.app[2].display-name = "ats"
*.ES_24.app[2].io.destAddress = "ES_17"
*.ES_24.app[2].io.destPort = 72
*.ES_24.app[2].source.productionInterval = 1000us
*.ES_24.app[2].source.initialProductionOffset = 1000us
*.ES_24.app[2].source.packetLength = 560B
*.ES_24.app[3..7].typename = "UdpSinkApp"
*.ES_24.app[3].io.localPort = 49
*.ES_24.app[4].io.localPort = 98
*.ES_24.app[5].io.localPort = 124
*.ES_24.app[6].io.localPort = 150
*.ES_24.app[7].io.localPort = 238
*.ES_25.app[0..2].typename = "UdpSourceApp"
*.ES_25.app[0].display-name = "ats"
*.ES_25.app[0].io.destAddress = "ES_35"
*.ES_25.app[0].io.destPort = 73
*.ES_25.app[0].source.productionInterval = 1000us
*.ES_25.app[0].source.initialProductionOffset = 1000us
*.ES_25.app[0].source.packetLength = 550B
*.ES_25.app[1].display-name = "ats"
*.ES_25.app[1].io.destAddress = "ES_55"
*.ES_25.app[1].io.destPort = 74
*.ES_25.app[1].source.productionInterval = 500us
*.ES_25.app[1].source.initialProductionOffset = 500us
*.ES_25.app[1].source.packetLength = 534B
*.ES_25.app[2].display-name = "ats"
*.ES_25.app[2].io.destAddress = "ES_23"
*.ES_25.app[2].io.destPort = 75
*.ES_25.app[2].source.productionInterval = 500us
*.ES_25.app[2].source.initialProductionOffset = 500us
*.ES_25.app[2].source.packetLength = 743B
*.ES_25.app[3].typename = "UdpSinkApp"
*.ES_25.app[3].io.localPort = 88
*.ES_26.app[0..2].typename = "UdpSourceApp"
*.ES_26.app[0].display-name = "ats"
*.ES_26.app[0].io.destAddress = "ES_67"
*.ES_26.app[0].io.destPort = 76
*.ES_26.app[0].source.productionInterval = 1000us
*.ES_26.app[0].source.initialProductionOffset = 1000us
*.ES_26.app[0].source.packetLength = 596B
*.ES_26.app[1].display-name = "ats"
*.ES_26.app[1].io.destAddress = "ES_76"
*.ES_26.app[1].io.destPort = 77
*.ES_26.app[1].source.productionInterval = 1000us
*.ES_26.app[1].source.initialProductionOffset = 1000us
*.ES_26.app[1].source.packetLength = 700B
*.ES_26.app[2].display-name = "ats"
*.ES_26.app[2].io.destAddress = "ES_44"
*.ES_26.app[2].io.destPort = 78
*.ES_26.app[2].source.productionInterval = 1000us
*.ES_26.app[2].source.initialProductionOffset = 1000us
*.ES_26.app[2].source.packetLength = 611B
*.ES_26.app[3].typename = "UdpSinkApp"
*.ES_26.app[3].io.localPort = 193
*.ES_27.app[0..2].typename = "UdpSourceApp"
*.ES_27.app[0].display-name = "ats"
*.ES_27.app[0].io.destAddress = "ES_1"
*.ES_27.app[0].io.destPort = 79
*.ES_27.app[0].source.productionInterval = 500us
*.ES_27.app[0].source.initialProductionOffset = 500us
*.ES_27.app[0].source.packetLength = 685B
*.ES_27.app[1].display-name = "ats"
*.ES_27.app[1].io.destAddress = "ES_3"
*.ES_27.app[1].io.destPort = 80
*.ES_27.app[1].source.productionInterval = 1000us
*.ES_27.app[1].source.initialProductionOffset = 1000us
*.ES_27.app[1].source.packetLength = 643B
*.ES_27.app[2].display-name = "ats"
*.ES_27.app[2].io.destAddress = "ES_52"
*.ES_27.app[2].io.destPort = 81
*.ES_27.app[2].source.productionInterval = 500us
*.ES_27.app[2].source.initialProductionOffset = 500us
*.ES_27.app[2].source.packetLength = 687B
*.ES_27.app[3..5].typename = "UdpSinkApp"
*.ES_27.app[3].io.localPort = 2
*.ES_27.app[4].io.localPort = 27
*.ES_27.app[5].io.localPort = 201
*.ES_28.app[0..2].typename = "UdpSourceApp"
*.ES_28.app[0].display-name = "ats"
*.ES_28.app[0].io.destAddress = "ES_65"
*.ES_28.app[0].io.destPort = 82
*.ES_28.app[0].source.productionInterval = 500us
*.ES_28.app[0].source.initialProductionOffset = 500us
*.ES_28.app[0].source.packetLength = 706B
*.ES_28.app[1].display-name = "ats"
*.ES_28.app[1].io.destAddress = "ES_80"
*.ES_28.app[1].io.destPort = 83
*.ES_28.app[1].source.productionInterval = 500us
*.ES_28.app[1].source.initialProductionOffset = 500us
*.ES_28.app[1].source.packetLength = 760B
*.ES_28.app[2].display-name = "ats"
*.ES_28.app[2].io.destAddress = "ES_64"
*.ES_28.app[2].io.destPort = 84
*.ES_28.app[2].source.productionInterval = 500us
*.ES_28.app[2].source.initialProductionOffset = 500us
*.ES_28.app[2].source.packetLength = 743B
*.ES_28.app[3].typename = "UdpSinkApp"
*.ES_28.app[3].io.localPort = 12
*.ES_29.app[0..2].typename = "UdpSourceApp"
*.ES_29.app[0].display-name = "ats"
*.ES_29.app[0].io.destAddress = "ES_54"
*.ES_29.app[0].io.destPort = 85
*.ES_29.app[0].source.productionInterval = 1000us
*.ES_29.app[0].source.initialProductionOffset = 1000us
*.ES_29.app[0].source.packetLength = 652B
*.ES_29.app[1].display-name = "ats"
*.ES_29.app[1].io.destAddress = "ES_67"
*.ES_29.app[1].io.destPort = 86
*.ES_29.app[1].source.productionInterval = 1000us
*.ES_29.app[1].source.initialProductionOffset = 1000us
*.ES_29.app[1].source.packetLength = 634B
*.ES_29.app[2].display-name = "ats"
*.ES_29.app[2].io.destAddress = "ES_67"
*.ES_29.app[2].io.destPort = 87
*.ES_29.app[2].source.productionInterval = 500us
*.ES_29.app[2].source.initialProductionOffset = 500us
*.ES_29.app[2].source.packetLength = 774B
*.ES_29.app[3..5].typename = "UdpSinkApp"
*.ES_29.app[3].io.localPort = 8
*.ES_29.app[4].io.localPort = 17
*.ES_29.app[5].io.localPort = 185
*.ES_30.app[0..2].typename = "UdpSourceApp"
*.ES_30.app[0].display-name = "ats"
*.ES_30.app[0].io.destAddress = "ES_25"
*.ES_30.app[0].io.destPort = 88
*.ES_30.app[0].source.productionInterval = 1000us
*.ES_30.app[0].source.initialProductionOffset = 1000us
*.ES_30.app[0].source.packetLength = 608B
*.ES_30.app[1].display-name = "ats"
*.ES_30.app[1].io.destAddress = "ES_14"
*.ES_30.app[1].io.destPort = 89