[General]
network = tsn.mesh_TSN_Network
sim-time-limit = 1.0s

# enable multiple canvas visualizers
*.visualizer.typename = "IntegratedMultiCanvasVisualizer"

# network route activity visualization
*.visualizer.numNetworkRouteVisualizers = 1
*.visualizer.networkRouteVisualizer[*].displayRoutes = true
*.visualizer.networkRouteVisualizer[0].packetFilter = "\"ats*\""
*.visualizer.networkRouteVisualizer[0].lineColor = "red1"

*.*.eth[*].bitrate = 1Gbps

# packet processing delay
*.*.bridging.directionReverser.delayer.typename = "PacketDelayer"
*.*.bridging.directionReverser.delayer.delay = 8us

*.ES_1.numApps = 2
*.ES_2.numApps = 1
*.ES_3.numApps = 1
*.ES_4.numApps = 2
*.ES_5.numApps = 1
*.ES_6.numApps = 2
*.ES_7.numApps = 1
*.ES_8.numApps = 1
*.ES_9.numApps = 1
*.ES_10.numApps = 3
*.ES_11.numApps = 4
*.ES_12.numApps = 2
*.ES_13.numApps = 2
*.ES_14.numApps = 4
*.ES_15.numApps = 3
*.ES_16.numApps = 2
*.ES_17.numApps = 2
*.ES_18.numApps = 1
*.ES_19.numApps = 2
*.ES_20.numApps = 3
*.ES_1.app[0].typename = "UdpSourceApp"
*.ES_1.app[0].display-name = "ats"
*.ES_1.app[0].io.destAddress = "ES_20"
*.ES_1.app[0].io.destPort = 1
*.ES_1.app[0].source.productionInterval = 1000us
*.ES_1.app[0].source.initialProductionOffset = 1000us
*.ES_1.app[0].source.packetLength = 775B
*.ES_1.app[1].typename = "UdpSinkApp"
*.ES_1.app[1].io.localPort = 8
*.ES_2.app[0].typename = "UdpSourceApp"
*.ES_2.app[0].display-name = "ats"
*.ES_2.app[0].io.destAddress = "ES_13"
*.ES_2.app[0].io.destPort = 2
*.ES_2.app[0].source.productionInterval = 1000us
*.ES_2.app[0].source.initialProductionOffset = 1000us
*.ES_2.app[0].source.packetLength = 782B
*.ES_3.app[0].typename = "UdpSourceApp"
*.ES_3.app[0].display-name = "ats"
*.ES_3.app[0].io.destAddress = "ES_16"
*.ES_3.app[0].io.destPort = 3
*.ES_3.app[0].source.productionInterval = 2000us
*.ES_3.app[0].source.initialProductionOffset = 2000us
*.ES_3.app[0].source.packetLength = 1456B
*.ES_4.app[0].typename = "UdpSourceApp"
*.ES_4.app[0].display-name = "ats"
*.ES_4.app[0].io.destAddress = "ES_10"
*.ES_4.app[0].io.destPort = 4
*.ES_4.app[0].source.productionInterval = 2000us
*.ES_4.app[0].source.initialProductionOffset = 2000us
*.ES_4.app[0].source.packetLength = 1263B
*.ES_4.app[1].typename = "UdpSinkApp"
*.ES_4.app[1].io.localPort = 14
*.ES_5.app[0].typename = "UdpSourceApp"
*.ES_5.app[0].display-name = "ats"
*.ES_5.app[0].io.destAddress = "ES_17"
*.ES_5.app[0].io.destPort = 5
*.ES_5.app[0].source.productionInterval = 5000us
*.ES_5.app[0].source.initialProductionOffset = 5000us
*.ES_5.app[0].source.packetLength = 540B
*.ES_6.app[0].typename = "UdpSourceApp"
*.ES_6.app[0].display-name = "ats"
*.ES_6.app[0].io.destAddress = "ES_10"
*.ES_6.app[0].io.destPort = 6
*.ES_6.app[0].source.productionInterval = 1000us
*.ES_6.app[0].source.initialProductionOffset = 1000us
*.ES_6.app[0].source.packetLength = 765B
*.ES_6.app[1].typename = "UdpSinkApp"
*.ES_6.app[1].io.localPort = 16
*.ES_7.app[0].typename = "UdpSourceApp"
*.ES_7.app[0].display-name = "ats"
*.ES_7.app[0].io.destAddress = "ES_14"
*.ES_7.app[0].io.destPort = 7
*.ES_7.app[0].source.productionInterval = 2000us
*.ES_7.app[0].source.initialProductionOffset = 2000us
*.ES_7.app[0].source.packetLength = 637B
*.ES_8.app[0].typename = "UdpSourceApp"
*.ES_8.app[0].display-name = "ats"
*.ES_8.app[0].io.destAddress = "ES_1"
*.ES_8.app[0].io.destPort = 8
*.ES_8.app[0].source.productionInterval = 5000us
*.ES_8.app[0].source.initialProductionOffset = 5000us
*.ES_8.app[0].source.packetLength = 1471B
*.ES_9.app[0].typename = "UdpSourceApp"
*.ES_9.app[0].display-name = "ats"
*.ES_9.app[0].io.destAddress = "ES_20"
*.ES_9.app[0].io.destPort = 9
*.ES_9.app[0].source.productionInterval = 1000us
*.ES_9.app[0].source.initialProductionOffset = 1000us
*.ES_9.app[0].source.packetLength = 1279B
*.ES_10.app[0].typename = "UdpSourceApp"
*.ES_10.app[0].display-name = "ats"
*.ES_10.app[0].io.destAddress = "ES_14"
*.ES_10.app[0].io.destPort = 10
*.ES_10.app[0].source.productionInterval = 1000us
*.ES_10.app[0].source.initialProductionOffset = 1000us
*.ES_10.app[0].source.packetLength = 754B
*.ES_10.app[1..2].typename = "UdpSinkApp"
*.ES_10.app[1].io.localPort = 4
*.ES_10.app[2].io.localPort = 6
*.ES_11.app[0].typename = "UdpSourceApp"
*.ES_11.app[0].display-name = "ats"
*.ES_11.app[0].io.destAddress = "ES_15"
*.ES_11.app[0].io.destPort = 11
*.ES_11.app[0].source.productionInterval = 2000us
*.ES_11.app[0].source.initialProductionOffset = 2000us
*.ES_11.app[0].source.packetLength = 1047B
*.ES_11.app[1..3].typename = "UdpSinkApp"
*.ES_11.app[1].io.localPort = 17
*.ES_11.app[2].io.localPort = 19
*.ES_11.app[3].io.localPort = 20
*.ES_12.app[0].typename = "UdpSourceApp"
*.ES_12.app[0].display-name = "ats"
*.ES_12.app[0].io.destAddress = "ES_15"
*.ES_12.app[0].io.destPort = 12
*.ES_12.app[0].source.productionInterval = 5000us
*.ES_12.app[0].source.initialProductionOffset = 5000us
*.ES_12.app[0].source.packetLength = 1477B
*.ES_12.app[1].typename = "UdpSinkApp"
*.ES_12.app[1].io.localPort = 18
*.ES_13.app[0].typename = "UdpSourceApp"
*.ES_13.app[0].display-name = "ats"
*.ES_13.app[0].io.destAddress = "ES_19"
*.ES_13.app[0].io.destPort = 13
*.ES_13.app[0].source.productionInterval = 2000us
*.ES_13.app[0].source.initialProductionOffset = 2000us
*.ES_13.app[0].source.packetLength = 780B
*.ES_13.app[1].typename = "UdpSinkApp"
*.ES_13.app[1].io.localPort = 2
*.ES_14.app[0].typename = "UdpSourceApp"
*.ES_14.app[0].display-name = "ats"
*.ES_14.app[0].io.destAddress = "ES_4"
*.ES_14.app[0].io.destPort = 14
*.ES_14.app[0].source.productionInterval = 1000us
*.ES_14.app[0].source.initialProductionOffset = 1000us
*.ES_14.app[0].source.packetLength = 773B
*.ES_14.app[1..3].typename = "UdpSinkApp"
*.ES_14.app[1].io.localPort = 7
*.ES_14.app[2].io.localPort = 10
*.ES_14.app[3].io.localPort = 15
*.ES_15.app[0].typename = "UdpSourceApp"
*.ES_15.app[0].display-name = "ats"
*.ES_15.app[0].io.destAddress = "ES_14"
*.ES_15.app[0].io.destPort = 15
*.ES_15.app[0].source.productionInterval = 1000us
*.ES_15.app[0].source.initialProductionOffset = 1000us
*.ES_15.app[0].source.packetLength = 554B
*.ES_15.app[1..2].typename = "UdpSinkApp"
*.ES_15.app[1].io.localPort = 11
*.ES_15.app[2].io.localPort = 12
*.ES_16.app[0].typename = "UdpSourceApp"
*.ES_16.app[0].display-name = "ats"
*.ES_16.app[0].io.destAddress = "ES_6"
*.ES_16.app[0].io.destPort = 16
*.ES_16.app[0].source.productionInterval = 2000us
*.ES_16.app[0].source.initialProductionOffset = 2000us
*.ES_16.app[0].source.packetLength = 510B
*.ES_16.app[1].typename = "UdpSinkApp"
*.ES_16.app[1].io.localPort = 3
*.ES_17.app[0].typename = "UdpSourceApp"
*.ES_17.app[0].display-name = "ats"
*.ES_17.app[0].io.destAddress = "ES_11"
*.ES_17.app[0].io.destPort = 17
*.ES_17.app[0].source.productionInterval = 5000us
*.ES_17.app[0].source.initialProductionOffset = 5000us
*.ES_17.app[0].source.packetLength = 771B
*.ES_17.app[1].typename = "UdpSinkApp"
*.ES_17.app[1].io.localPort = 5
*.ES_18.app[0].typename = "UdpSourceApp"
*.ES_18.app[0].display-name = "ats"
*.ES_18.app[0].io.destAddress = "ES_12"
*.ES_18.app[0].io.destPort = 18
*.ES_18.app[0].source.productionInterval = 2000us
*.ES_18.app[0].source.initialProductionOffset = 2000us
*.ES_18.app[0].source.packetLength = 898B
*.ES_19.app[0].typename = "UdpSourceApp"
*.ES_19.app[0].display-name = "ats"
*.ES_19.app[0].io.destAddress = "ES_11"
*.ES_19.app[0].io.destPort = 19
*.ES_19.app[0].source.productionInterval = 2000us
*.ES_19.app[0].source.initialProductionOffset = 2000us
*.ES_19.app[0].source.packetLength = 1149B
*.ES_19.app[1].typename = "UdpSinkApp"
*.ES_19.app[1].io.localPort = 13
*.ES_20.app[0].typename = "UdpSourceApp"
*.ES_20.app[0].display-name = "ats"
*.ES_20.app[0].io.destAddress = "ES_11"
*.ES_20.app[0].io.destPort = 20
*.ES_20.app[0].source.productionInterval = 1000us
*.ES_20.app[0].source.initialProductionOffset = 1000us
*.ES_20.app[0].source.packetLength = 530B
*.ES_20.app[1..2].typename = "UdpSinkApp"
*.ES_20.app[1].io.localPort = 1
*.ES_20.app[2].io.localPort = 9

*.node*.hasUdp = firstAvailableOrEmpty("Udp") != ""

# steering stream identification and coding
*.node*.bridging.streamIdentifier.identifier.mapping = [
    {stream: "ats", packetFilter: expr(udp.destPort == 1)}]

# traffic configuration
*.*.eth[*].macLayer.queue.numTrafficClasses = 1
*.*.eth[*].macLayer.queue.numQueues = 1
*.*.eth[*].macLayer.queue.*[0].display-name = "ats"

# client stream encoding
*.*.bridging.streamCoder.encoder.mapping = [{stream: "ats", pcp: 6}]

# enable streams
*.*.hasIncomingStreams = true
*.*.hasOutgoingStreams = true

# stream coder mappings for switches
*.sw*.bridging.streamCoder.encoder.mapping = [{stream: "ats", pcp: 6}]
*.sw*.bridging.streamCoder.decoder.mapping = [{stream: "ats", pcp: 6}]
*.sw*.eth[*].macLayer.queue.classifier.mapping = [[0, 1, 2], [0, 1, 2], [0, 1, 2], [0, 1, 2], [0, 1, 2], [0, 1, 1], [0, 0, 0], [0, 1, 2]]

# enable ingress per-stream filtering
*.sw*.hasIngressTrafficFiltering = true

# enable egress traffic shaping
*.*.hasEgressTrafficShaping = true

# asynchronous shaper traffic metering
*.sw*.bridging.streamFilter.ingress.numStreams = 1
*.sw*.bridging.streamFilter.ingress.classifier.mapping = { "ats": 0}
*.sw*.bridging.streamFilter.ingress.*[0].display-name = "ats"
*.sw*.bridging.streamFilter.ingress.meter[*].typename = "EligibilityTimeMeter"
*.sw*.bridging.streamFilter.ingress.filter[*].typename = "EligibilityTimeFilter"

*.sw*.bridging.streamFilter.ingress.meter[0].committedInformationRate = 10Mbps
*.sw*.bridging.streamFilter.ingress.meter[0].committedBurstSize = 500B

# asynchronous traffic shaping
*.sw*.eth[*].macLayer.queue.transmissionSelectionAlgorithm[*].typename = "Ieee8021qAsynchronousShaper"
