[General]
network = tsn.TSN_Network
sim-time-limit = 1.0s

# enable multiple canvas visualizers
*.visualizer.typename = "IntegratedMultiCanvasVisualizer"

# network route activity visualization
*.visualizer.numNetworkRouteVisualizers = 1
*.visualizer.networkRouteVisualizer[*].displayRoutes = true
*.visualizer.networkRouteVisualizer[0].packetFilter = "\"ats*\""
*.visualizer.networkRouteVisualizer[0].lineColor = "red1"

*.*.eth[*].bitrate = 1Gbps

# packet processing delay
*.*.bridging.directionReverser.delayer.typename = "PacketDelayer"
*.*.bridging.directionReverser.delayer.delay = 8us

*.ES_1.numApps = 6
*.ES_2.numApps = 8
*.ES_3.numApps = 5
*.ES_4.numApps = 13
*.ES_5.numApps = 5
*.ES_6.numApps = 12
*.ES_7.numApps = 9
*.ES_8.numApps = 10
*.ES_9.numApps = 10
*.ES_10.numApps = 7
*.ES_11.numApps = 10
*.ES_12.numApps = 7
*.ES_13.numApps = 9
*.ES_14.numApps = 6
*.ES_15.numApps = 8
*.ES_16.numApps = 8
*.ES_17.numApps = 6
*.ES_18.numApps = 11
*.ES_19.numApps = 8
*.ES_20.numApps = 5
*.ES_21.numApps = 6
*.ES_22.numApps = 8
*.ES_23.numApps = 5
*.ES_24.numApps = 7
*.ES_25.numApps = 5
*.ES_26.numApps = 6
*.ES_27.numApps = 7
*.ES_28.numApps = 10
*.ES_29.numApps = 10
*.ES_30.numApps = 10
*.ES_31.numApps = 8
*.ES_32.numApps = 9
*.ES_33.numApps = 10
*.ES_34.numApps = 8
*.ES_35.numApps = 9
*.ES_36.numApps = 8
*.ES_37.numApps = 11
*.ES_38.numApps = 9
*.ES_39.numApps = 6
*.ES_40.numApps = 5
*.ES_1.app[0..3].typename = "UdpSourceApp"
*.ES_1.app[0].display-name = "ats-p1"
*.ES_1.app[0].io.destAddress = "ES_9"
*.ES_1.app[0].io.destPort = 1
*.ES_1.app[0].source.productionInterval = 1000us
*.ES_1.app[0].source.initialProductionOffset = 1000us
*.ES_1.app[0].source.packetLength = 953B
*.ES_1.app[1].display-name = "ats-p3"
*.ES_1.app[1].io.destAddress = "ES_33"
*.ES_1.app[1].io.destPort = 2
*.ES_1.app[1].source.productionInterval = 1000us
*.ES_1.app[1].source.initialProductionOffset = 1000us
*.ES_1.app[1].source.packetLength = 790B
*.ES_1.app[2].display-name = "ats-p6"
*.ES_1.app[2].io.destAddress = "ES_36"
*.ES_1.app[2].io.destPort = 3
*.ES_1.app[2].source.productionInterval = 1000us
*.ES_1.app[2].source.initialProductionOffset = 1000us
*.ES_1.app[2].source.packetLength = 687B
*.ES_1.app[3].display-name = "ats-p4"
*.ES_1.app[3].io.destAddress = "ES_35"
*.ES_1.app[3].io.destPort = 4
*.ES_1.app[3].source.productionInterval = 1000us
*.ES_1.app[3].source.initialProductionOffset = 1000us
*.ES_1.app[3].source.packetLength = 658B
*.ES_1.app[4..5].typename = "UdpSinkApp"
*.ES_1.app[4].io.localPort = 30
*.ES_1.app[5].io.localPort = 133
*.ES_2.app[0..3].typename = "UdpSourceApp"
*.ES_2.app[0].display-name = "ats-p5"
*.ES_2.app[0].io.destAddress = "ES_17"
*.ES_2.app[0].io.destPort = 5
*.ES_2.app[0].source.productionInterval = 2000us
*.ES_2.app[0].source.initialProductionOffset = 2000us
*.ES_2.app[0].source.packetLength = 772B
*.ES_2.app[1].display-name = "ats-p3"
*.ES_2.app[1].io.destAddress = "ES_11"
*.ES_2.app[1].io.destPort = 6
*.ES_2.app[1].source.productionInterval = 2000us
*.ES_2.app[1].source.initialProductionOffset = 2000us
*.ES_2.app[1].source.packetLength = 668B
*.ES_2.app[2].display-name = "ats-p2"
*.ES_2.app[2].io.destAddress = "ES_4"
*.ES_2.app[2].io.destPort = 7
*.ES_2.app[2].source.productionInterval = 1000us
*.ES_2.app[2].source.initialProductionOffset = 1000us
*.ES_2.app[2].source.packetLength = 504B
*.ES_2.app[3].display-name = "ats-p1"
*.ES_2.app[3].io.destAddress = "ES_11"
*.ES_2.app[3].io.destPort = 8
*.ES_2.app[3].source.productionInterval = 1000us
*.ES_2.app[3].source.initialProductionOffset = 1000us
*.ES_2.app[3].source.packetLength = 920B
*.ES_2.app[4..7].typename = "UdpSinkApp"
*.ES_2.app[4].io.localPort = 28
*.ES_2.app[5].io.localPort = 31
*.ES_2.app[6].io.localPort = 82
*.ES_2.app[7].io.localPort = 147
*.ES_3.app[0..3].typename = "UdpSourceApp"
*.ES_3.app[0].display-name = "ats-p6"
*.ES_3.app[0].io.destAddress = "ES_16"
*.ES_3.app[0].io.destPort = 9
*.ES_3.app[0].source.productionInterval = 1000us
*.ES_3.app[0].source.initialProductionOffset = 1000us
*.ES_3.app[0].source.packetLength = 515B
*.ES_3.app[1].display-name = "ats-p5"
*.ES_3.app[1].io.destAddress = "ES_17"
*.ES_3.app[1].io.destPort = 10
*.ES_3.app[1].source.productionInterval = 2000us
*.ES_3.app[1].source.initialProductionOffset = 2000us
*.ES_3.app[1].source.packetLength = 751B
*.ES_3.app[2].display-name = "ats-p6"
*.ES_3.app[2].io.destAddress = "ES_19"
*.ES_3.app[2].io.destPort = 11
*.ES_3.app[2].source.productionInterval = 2000us
*.ES_3.app[2].source.initialProductionOffset = 2000us
*.ES_3.app[2].source.packetLength = 658B
*.ES_3.app[3].display-name = "ats-p2"
*.ES_3.app[3].io.destAddress = "ES_29"
*.ES_3.app[3].io.destPort = 12
*.ES_3.app[3].source.productionInterval = 2000us
*.ES_3.app[3].source.initialProductionOffset = 2000us
*.ES_3.app[3].source.packetLength = 988B
*.ES_3.app[4].typename = "UdpSinkApp"
*.ES_3.app[4].io.localPort = 77
*.ES_4.app[0..3].typename = "UdpSourceApp"
*.ES_4.app[0].display-name = "ats-p1"
*.ES_4.app[0].io.destAddress = "ES_5"
*.ES_4.app[0].io.destPort = 13
*.ES_4.app[0].source.productionInterval = 2000us
*.ES_4.app[0].source.initialProductionOffset = 2000us
*.ES_4.app[0].source.packetLength = 524B
*.ES_4.app[1].display-name = "ats-p0"
*.ES_4.app[1].io.destAddress = "ES_34"
*.ES_4.app[1].io.destPort = 14
*.ES_4.app[1].source.productionInterval = 2000us
*.ES_4.app[1].source.initialProductionOffset = 2000us
*.ES_4.app[1].source.packetLength = 781B
*.ES_4.app[2].display-name = "ats-p1"
*.ES_4.app[2].io.destAddress = "ES_30"
*.ES_4.app[2].io.destPort = 15
*.ES_4.app[2].source.productionInterval = 2000us
*.ES_4.app[2].source.initialProductionOffset = 2000us
*.ES_4.app[2].source.packetLength = 826B
*.ES_4.app[3].display-name = "ats-p0"
*.ES_4.app[3].io.destAddress = "ES_14"
*.ES_4.app[3].io.destPort = 16
*.ES_4.app[3].source.productionInterval = 2000us
*.ES_4.app[3].source.initialProductionOffset = 2000us
*.ES_4.app[3].source.packetLength = 725B
*.ES_4.app[4..12].typename = "UdpSinkApp"
*.ES_4.app[4].io.localPort = 7
*.ES_4.app[5].io.localPort = 25
*.ES_4.app[6].io.localPort = 34
*.ES_4.app[7].io.localPort = 46
*.ES_4.app[8].io.localPort = 65
*.ES_4.app[9].io.localPort = 90
*.ES_4.app[10].io.localPort = 96
*.ES_4.app[11].io.localPort = 130
*.ES_4.app[12].io.localPort = 144
*.ES_5.app[0..3].typename = "UdpSourceApp"
*.ES_5.app[0].display-name = "ats-p7"
*.ES_5.app[0].io.destAddress = "ES_37"
*.ES_5.app[0].io.destPort = 17
*.ES_5.app[0].source.productionInterval = 1000us
*.ES_5.app[0].source.initialProductionOffset = 1000us
*.ES_5.app[0].source.packetLength = 959B
*.ES_5.app[1].display-name = "ats-p3"
*.ES_5.app[1].io.destAddress = "ES_10"
*.ES_5.app[1].io.destPort = 18
*.ES_5.app[1].source.productionInterval = 1000us
*.ES_5.app[1].source.initialProductionOffset = 1000us
*.ES_5.app[1].source.packetLength = 756B
*.ES_5.app[2].display-name = "ats-p4"
*.ES_5.app[2].io.destAddress = "ES_22"
*.ES_5.app[2].io.destPort = 19
*.ES_5.app[2].source.productionInterval = 2000us
*.ES_5.app[2].source.initialProductionOffset = 2000us
*.ES_5.app[2].source.packetLength = 809B
*.ES_5.app[3].display-name = "ats-p6"
*.ES_5.app[3].io.destAddress = "ES_6"
*.ES_5.app[3].io.destPort = 20
*.ES_5.app[3].source.productionInterval = 1000us
*.ES_5.app[3].source.initialProductionOffset = 1000us
*.ES_5.app[3].source.packetLength = 867B
*.ES_5.app[4].typename = "UdpSinkApp"
*.ES_5.app[4].io.localPort = 13
*.ES_6.app[0..3].typename = "UdpSourceApp"
*.ES_6.app[0].display-name = "ats-p1"
*.ES_6.app[0].io.destAddress = "ES_11"
*.ES_6.app[0].io.destPort = 21
*.ES_6.app[0].source.productionInterval = 2000us
*.ES_6.app[0].source.initialProductionOffset = 2000us
*.ES_6.app[0].source.packetLength = 565B
*.ES_6.app[1].display-name = "ats-p5"
*.ES_6.app[1].io.destAddress = "ES_39"
*.ES_6.app[1].io.destPort = 22
*.ES_6.app[1].source.productionInterval = 1000us
*.ES_6.app[1].source.initialProductionOffset = 1000us
*.ES_6.app[1].source.packetLength = 706B
*.ES_6.app[2].display-name = "ats-p2"
*.ES_6.app[2].io.destAddress = "ES_37"
*.ES_6.app[2].io.destPort = 23
*.ES_6.app[2].source.productionInterval = 2000us
*.ES_6.app[2].source.initialProductionOffset = 2000us
*.ES_6.app[2].source.packetLength = 849B
*.ES_6.app[3].display-name = "ats-p7"
*.ES_6.app[3].io.destAddress = "ES_32"
*.ES_6.app[3].io.destPort = 24
*.ES_6.app[3].source.productionInterval = 1000us
*.ES_6.app[3].source.initialProductionOffset = 1000us
*.ES_6.app[3].source.packetLength = 578B
*.ES_6.app[4..11].typename = "UdpSinkApp"
*.ES_6.app[4].io.localPort = 20
*.ES_6.app[5].io.localPort = 32
*.ES_6.app[6].io.localPort = 35
*.ES_6.app[7].io.localPort = 72
*.ES_6.app[8].io.localPort = 80
*.ES_6.app[9].io.localPort = 107
*.ES_6.app[10].io.localPort = 120
*.ES_6.app[11].io.localPort = 160
*.ES_7.app[0..3].typename = "UdpSourceApp"
*.ES_7.app[0].display-name = "ats-p5"
*.ES_7.app[0].io.destAddress = "ES_4"
*.ES_7.app[0].io.destPort = 25
*.ES_7.app[0].source.productionInterval = 2000us
*.ES_7.app[0].source.initialProductionOffset = 2000us
*.ES_7.app[0].source.packetLength = 624B
*.ES_7.app[1].display-name = "ats-p0"
*.ES_7.app[1].io.destAddress = "ES_35"
*.ES_7.app[1].io.destPort = 26
*.ES_7.app[1].source.productionInterval = 1000us
*.ES_7.app[1].source.initialProductionOffset = 1000us
*.ES_7.app[1].source.packetLength = 630B
*.ES_7.app[2].display-name = "ats-p0"
*.ES_7.app[2].io.destAddress = "ES_11"
*.ES_7.app[2].io.destPort = 27
*.ES_7.app[2].source.productionInterval = 1000us
*.ES_7.app[2].source.initialProductionOffset = 1000us
*.ES_7.app[2].source.packetLength = 760B
*.ES_7.app[3].display-name = "ats-p5"
*.ES_7.app[3].io.destAddress = "ES_2"
*.ES_7.app[3].io.destPort = 28
*.ES_7.app[3].source.productionInterval = 2000us
*.ES_7.app[3].source.initialProductionOffset = 2000us
*.ES_7.app[3].source.packetLength = 564B
*.ES_7.app[4..8].typename = "UdpSinkApp"
*.ES_7.app[4].io.localPort = 37
*.ES_7.app[5].io.localPort = 60
*.ES_7.app[6].io.localPort = 87
*.ES_7.app[7].io.localPort = 89
*.ES_7.app[8].io.localPort = 108
*.ES_8.app[0..3].typename = "UdpSourceApp"
*.ES_8.app[0].display-name = "ats-p7"
*.ES_8.app[0].io.destAddress = "ES_34"
*.ES_8.app[0].io.destPort = 29
*.ES_8.app[0].source.productionInterval = 2000us
*.ES_8.app[0].source.initialProductionOffset = 2000us
*.ES_8.app[0].source.packetLength = 934B
*.ES_8.app[1].display-name = "ats-p1"
*.ES_8.app[1].io.destAddress = "ES_1"
*.ES_8.app[1].io.destPort = 30
*.ES_8.app[1].source.productionInterval = 1000us
*.ES_8.app[1].source.initialProductionOffset = 1000us
*.ES_8.app[1].source.packetLength = 743B
*.ES_8.app[2].display-name = "ats-p4"
*.ES_8.app[2].io.destAddress = "ES_2"
*.ES_8.app[2].io.destPort = 31
*.ES_8.app[2].source.productionInterval = 2000us
*.ES_8.app[2].source.initialProductionOffset = 2000us
*.ES_8.app[2].source.packetLength = 667B
*.ES_8.app[3].display-name = "ats-p6"
*.ES_8.app[3].io.destAddress = "ES_6"
*.ES_8.app[3].io.destPort = 32
*.ES_8.app[3].source.productionInterval = 1000us
*.ES_8.app[3].source.initialProductionOffset = 1000us
*.ES_8.app[3].source.packetLength = 771B
*.ES_8.app[4..9].typename = "UdpSinkApp"
*.ES_8.app[4].io.localPort = 39
*.ES_8.app[5].io.localPort = 55
*.ES_8.app[6].io.localPort = 62
*.ES_8.app[7].io.localPort = 124
*.ES_8.app[8].io.localPort = 137
*.ES_8.app[9].io.localPort = 145
*.ES_9.app[0..3].typename = "UdpSourceApp"
*.ES_9.app[0].display-name = "ats-p0"
*.ES_9.app[0].io.destAddress = "ES_29"
*.ES_9.app[0].io.destPort = 33
*.ES_9.app[0].source.productionInterval = 2000us
*.ES_9.app[0].source.initialProductionOffset = 2000us
*.ES_9.app[0].source.packetLength = 623B
*.ES_9.app[1].display-name = "ats-p2"
*.ES_9.app[1].io.destAddress = "ES_4"
*.ES_9.app[1].io.destPort = 34
*.ES_9.app[1].source.productionInterval = 2000us
*.ES_9.app[1].source.initialProductionOffset = 2000us
*.ES_9.app[1].source.packetLength = 915B
*.ES_9.app[2].display-name = "ats-p7"
*.ES_9.app[2].io.destAddress = "ES_6"
*.ES_9.app[2].io.destPort = 35
*.ES_9.app[2].source.productionInterval = 1000us
*.ES_9.app[2].source.initialProductionOffset = 1000us
*.ES_9.app[2].source.packetLength = 512B
*.ES_9.app[3].display-name = "ats-p1"
*.ES_9.app[3].io.destAddress = "ES_38"
*.ES_9.app[3].io.destPort = 36
*.ES_9.app[3].source.productionInterval = 1000us
*.ES_9.app[3].source.initialProductionOffset = 1000us
*.ES_9.app[3].source.packetLength = 973B
*.ES_9.app[4..9].typename = "UdpSinkApp"
*.ES_9.app[4].io.localPort = 1
*.ES_9.app[5].io.localPort = 53
*.ES_9.app[6].io.localPort = 59
*.ES_9.app[7].io.localPort = 79
*.ES_9.app[8].io.localPort = 103
*.ES_9.app[9].io.localPort = 148
*.ES_10.app[0..3].typename = "UdpSourceApp"
*.ES_10.app[0].display-name = "ats-p6"
*.ES_10.app[0].io.destAddress = "ES_7"
*.ES_10.app[0].io.destPort = 37
*.ES_10.app[0].source.productionInterval = 2000us
*.ES_10.app[0].source.initialProductionOffset = 2000us
*.ES_10.app[0].source.packetLength = 654B
*.ES_10.app[1].display-name = "ats-p3"
*.ES_10.app[1].io.destAddress = "ES_30"
*.ES_10.app[1].io.destPort = 38
*.ES_10.app[1].source.productionInterval = 1000us
*.ES_10.app[1].source.initialProductionOffset = 1000us
*.ES_10.app[1].source.packetLength = 866B
*.ES_10.app[2].display-name = "ats-p3"
*.ES_10.app[2].io.destAddress = "ES_8"
*.ES_10.app[2].io.destPort = 39
*.ES_10.app[2].source.productionInterval = 1000us
*.ES_10.app[2].source.initialProductionOffset = 1000us
*.ES_10.app[2].source.packetLength = 645B
*.ES_10.app[3].display-name = "ats-p4"
*.ES_10.app[3].io.destAddress = "ES_12"
*.ES_10.app[3].io.destPort = 40
*.ES_10.app[3].source.productionInterval = 1000us
*.ES_10.app[3].source.initialProductionOffset = 1000us
*.ES_10.app[3].source.packetLength = 655B
*.ES_10.app[4..6].typename = "UdpSinkApp"
*.ES_10.app[4].io.localPort = 18
*.ES_10.app[5].io.localPort = 122
*.ES_10.app[6].io.localPort = 134
*.ES_11.app[0..3].typename = "UdpSourceApp"
*.ES_11.app[0].display-name = "ats-p6"
*.ES_11.app[0].io.destAddress = "ES_28"
*.ES_11.app[0].io.destPort = 41
*.ES_11.app[0].source.productionInterval = 1000us
*.ES_11.app[0].source.initialProductionOffset = 1000us
*.ES_11.app[0].source.packetLength = 616B
*.ES_11.app[1].display-name = "ats-p4"
*.ES_11.app[1].io.destAddress = "ES_12"
*.ES_11.app[1].io.destPort = 42
*.ES_11.app[1].source.productionInterval = 1000us
*.ES_11.app[1].source.initialProductionOffset = 1000us
*.ES_11.app[1].source.packetLength = 534B
*.ES_11.app[2].display-name = "ats-p5"
*.ES_11.app[2].io.destAddress = "ES_29"
*.ES_11.app[2].io.destPort = 43
*.ES_11.app[2].source.productionInterval = 2000us
*.ES_11.app[2].source.initialProductionOffset = 2000us
*.ES_11.app[2].source.packetLength = 966B
*.ES_11.app[3].display-name = "ats-p3"
*.ES_11.app[3].io.destAddress = "ES_32"
*.ES_11.app[3].io.destPort = 44
*.ES_11.app[3].source.productionInterval = 2000us
*.ES_11.app[3].source.initialProductionOffset = 2000us
*.ES_11.app[3].source.packetLength = 868B
*.ES_11.app[4..9].typename = "UdpSinkApp"
*.ES_11.app[4].io.localPort = 6
*.ES_11.app[5].io.localPort = 8
*.ES_11.app[6].io.localPort = 21
*.ES_11.app[7].io.localPort = 27
*.ES_11.app[8].io.localPort = 95
*.ES_11.app[9].io.localPort = 118
*.ES_12.app[0..3].typename = "UdpSourceApp"
*.ES_12.app[0].display-name = "ats-p4"
*.ES_12.app[0].io.destAddress = "ES_19"
*.ES_12.app[0].io.destPort = 45
*.ES_12.app[0].source.productionInterval = 2000us
*.ES_12.app[0].source.initialProductionOffset = 2000us
*.ES_12.app[0].source.packetLength = 963B
*.ES_12.app[1].display-name = "ats-p3"
*.ES_12.app[1].io.destAddress = "ES_4"
*.ES_12.app[1].io.destPort = 46
*.ES_12.app[1].source.productionInterval = 2000us
*.ES_12.app[1].source.initialProductionOffset = 2000us
*.ES_12.app[1].source.packetLength = 531B
*.ES_12.app[2].display-name = "ats-p3"
*.ES_12.app[2].io.destAddress = "ES_22"
*.ES_12.app[2].io.destPort = 47
*.ES_12.app[2].source.productionInterval = 2000us
*.ES_12.app[2].source.initialProductionOffset = 2000us
*.ES_12.app[2].source.packetLength = 572B
*.ES_12.app[3].display-name = "ats-p0"
*.ES_12.app[3].io.destAddress = "ES_36"
*.ES_12.app[3].io.destPort = 48
*.ES_12.app[3].source.productionInterval = 2000us
*.ES_12.app[3].source.initialProductionOffset = 2000us
*.ES_12.app[3].source.packetLength = 802B
*.ES_12.app[4..6].typename = "UdpSinkApp"
*.ES_12.app[4].io.localPort = 40
*.ES_12.app[5].io.localPort = 42
*.ES_12.app[6].io.localPort = 91
*.ES_13.app[0..3].typename = "UdpSourceApp"
*.ES_13.app[0].display-name = "ats-p1"
*.ES_13.app[0].io.destAddress = "ES_33"
*.ES_13.app[0].io.destPort = 49
*.ES_13.app[0].source.productionInterval = 1000us
*.ES_13.app[0].source.initialProductionOffset = 1000us
*.ES_13.app[0].source.packetLength = 851B
*.ES_13.app[1].display-name = "ats-p0"
*.ES_13.app[1].io.destAddress = "ES_34"
*.ES_13.app[1].io.destPort = 50
*.ES_13.app[1].source.productionInterval = 1000us
*.ES_13.app[1].source.initialProductionOffset = 1000us
*.ES_13.app[1].source.packetLength = 631B
*.ES_13.app[2].display-name = "ats-p4"
*.ES_13.app[2].io.destAddress = "ES_38"
*.ES_13.app[2].io.destPort = 51
*.ES_13.app[2].source.productionInterval = 1000us
*.ES_13.app[2].source.initialProductionOffset = 1000us
*.ES_13.app[2].source.packetLength = 859B
*.ES_13.app[3].display-name = "ats-p1"
*.ES_13.app[3].io.destAddress = "ES_19"
*.ES_13.app[3].io.destPort = 52
*.ES_13.app[3].source.productionInterval = 1000us
*.ES_13.app[3].source.initialProductionOffset = 1000us
*.ES_13.app[3].source.packetLength = 827B
*.ES_13.app[4..8].typename = "UdpSinkApp"
*.ES_13.app[4].io.localPort = 63
*.ES_13.app[5].io.localPort = 74
*.ES_13.app[6].io.localPort = 132
*.ES_13.app[7].io.localPort = 154
*.ES_13.app[8].io.localPort = 155
*.ES_14.app[0..3].typename = "UdpSourceApp"
*.ES_14.app[0].display-name = "ats-p5"
*.ES_14.app[0].io.destAddress = "ES_9"
*.ES_14.app[0].io.destPort = 53
*.ES_14.app[0].source.productionInterval = 1000us
*.ES_14.app[0].source.initialProductionOffset = 1000us
*.ES_14.app[0].source.packetLength = 725B
*.ES_14.app[1].display-name = "ats-p3"
*.ES_14.app[1].io.destAddress = "ES_18"
*.ES_14.app[1].io.destPort = 54
*.ES_14.app[1].source.productionInterval = 2000us
*.ES_14.app[1].source.initialProductionOffset = 2000us
*.ES_14.app[1].source.packetLength = 695B
*.ES_14.app[2].display-name = "ats-p7"
*.ES_14.app[2].io.destAddress = "ES_8"
*.ES_14.app[2].io.destPort = 55
*.ES_14.app[2].source.productionInterval = 1000us
*.ES_14.app[2].source.initialProductionOffset = 1000us
*.ES_14.app[2].source.packetLength = 751B
*.ES_14.app[3].display-name = "ats-p3"
*.ES_14.app[3].io.destAddress = "ES_29"
*.ES_14.app[3].io.destPort = 56
*.ES_14.app[3].source.productionInterval = 1000us
*.ES_14.app[3].source.initialProductionOffset = 1000us
*.ES_14.app[3].source.packetLength = 528B
*.ES_14.app[4..5].typename = "UdpSinkApp"
*.ES_14.app[4].io.localPort = 16
*.ES_14.app[5].io.localPort = 149
*.ES_15.app[0..3].typename = "UdpSourceApp"
*.ES_15.app[0].display-name = "ats-p7"
*.ES_15.app[0].io.destAddress = "ES_30"
*.ES_15.app[0].io.destPort = 57
*.ES_15.app[0].source.productionInterval = 1000us
*.ES_15.app[0].source.initialProductionOffset = 1000us
*.ES_15.app[0].source.packetLength = 511B
*.ES_15.app[1].display-name = "ats-p5"
*.ES_15.app[1].io.destAddress = "ES_35"
*.ES_15.app[1].io.destPort = 58
*.ES_15.app[1].source.productionInterval = 1000us
*.ES_15.app[1].source.initialProductionOffset = 1000us
*.ES_15.app[1].source.packetLength = 681B
*.ES_15.app[2].display-name = "ats-p1"
*.ES_15.app[2].io.destAddress = "ES_9"
*.ES_15.app[2].io.destPort = 59
*.ES_15.app[2].source.productionInterval = 2000us
*.ES_15.app[2].source.initialProductionOffset = 2000us
*.ES_15.app[2].source.packetLength = 900B
*.ES_15.app[3].display-name = "ats-p5"
*.ES_15.app[3].io.destAddress = "ES_7"
*.ES_15.app[3].io.destPort = 60
*.ES_15.app[3].source.productionInterval = 1000us
*.ES_15.app[3].source.initialProductionOffset = 1000us
*.ES_15.app[3].source.packetLength = 865B
*.ES_15.app[4..7].typename = "UdpSinkApp"
*.ES_15.app[4].io.localPort = 69
*.ES_15.app[5].io.localPort = 104
*.ES_15.app[6].io.localPort = 136
*.ES_15.app[7].io.localPort = 138
*.ES_16.app[0..3].typename = "UdpSourceApp"
*.ES_16.app[0].display-name = "ats-p7"
*.ES_16.app[0].io.destAddress = "ES_26"
*.ES_16.app[0].io.destPort = 61
*.ES_16.app[0].source.productionInterval = 2000us
*.ES_16.app[0].source.initialProductionOffset = 2000us
*.ES_16.app[0].source.packetLength = 876B
*.ES_16.app[1].display-name = "ats-p3"
*.ES_16.app[1].io.destAddress = "ES_8"
*.ES_16.app[1].io.destPort = 62
*.ES_16.app[1].source.productionInterval = 1000us
*.ES_16.app[1].source.initialProductionOffset = 1000us
*.ES_16.app[1].source.packetLength = 852B
*.ES_16.app[2].display-name = "ats-p2"
*.ES_16.app[2].io.destAddress = "ES_13"
*.ES_16.app[2].io.destPort = 63
*.ES_16.app[2].source.productionInterval = 2000us
*.ES_16.app[2].source.initialProductionOffset = 2000us
*.ES_16.app[2].source.packetLength = 929B
*.ES_16.app[3].display-name = "ats-p6"
*.ES_16.app[3].io.destAddress = "ES_18"
*.ES_16.app[3].io.destPort = 64
*.ES_16.app[3].source.productionInterval = 2000us
*.ES_16.app[3].source.initialProductionOffset = 2000us
*.ES_16.app[3].source.packetLength = 827B
*.ES_16.app[4..7].typename = "UdpSinkApp"
*.ES_16.app[4].io.localPort = 9
*.ES_16.app[5].io.localPort = 106
*.ES_16.app[6].io.localPort = 110
*.ES_16.app[7].io.localPort = 146
*.ES_17.app[0..3].typename = "UdpSourceApp"
*.ES_17.app[0].display-name = "ats-p1"
*.ES_17.app[0].io.destAddress = "ES_4"
*.ES_17.app[0].io.destPort = 65
*.ES_17.app[0].source.productionInterval = 2000us
*.ES_17.app[0].source.initialProductionOffset = 2000us
*.ES_17.app[0].source.packetLength = 668B
*.ES_17.app[1].display-name = "ats-p3"
*.ES_17.app[1].io.destAddress = "ES_25"
*.ES_17.app[1].io.destPort = 66
*.ES_17.app[1].source.productionInterval = 2000us
*.ES_17.app[1].source.initialProductionOffset = 2000us
*.ES_17.app[1].source.packetLength = 600B
*.ES_17.app[2].display-name = "ats-p2"
*.ES_17.app[2].io.destAddress = "ES_24"
*.ES_17.app[2].io.destPort = 67
*.ES_17.app[2].source.productionInterval = 1000us
*.ES_17.app[2].source.initialProductionOffset = 1000us
*.ES_17.app[2].source.packetLength = 542B
*.ES_17.app[3].display-name = "ats-p7"
*.ES_17.app[3].io.destAddress = "ES_28"
*.ES_17.app[3].io.destPort = 68
*.ES_17.app[3].source.productionInterval = 1000us
*.ES_17.app[3].source.initialProductionOffset = 1000us
*.ES_17.app[3].source.packetLength = 571B
*.ES_17.app[4..5].typename = "UdpSinkApp"
*.ES_17.app[4].io.localPort = 5
*.ES_17.app[5].io.localPort = 10
*.ES_18.app[0..3].typename = "UdpSourceApp"
*.ES_18.app[0].display-name = "ats-p3"
*.ES_18.app[0].io.destAddress = "ES_15"
*.ES_18.app[0].io.destPort = 69
*.ES_18.app[0].source.productionInterval = 2000us
*.ES_18.app[0].source.initialProductionOffset = 2000us
*.ES_18.app[0].source.packetLength = 951B
*.ES_18.app[1].display-name = "ats-p0"
*.ES_18.app[1].io.destAddress = "ES_33"
*.ES_18.app[1].io.destPort = 70
*.ES_18.app[1].source.productionInterval = 1000us
*.ES_18.app[1].source.initialProductionOffset = 1000us
*.ES_18.app[1].source.packetLength = 904B
*.ES_18.app[2].display-name = "ats-p6"
*.ES_18.app[2].io.destAddress = "ES_34"
*.ES_18.app[2].io.destPort = 71
*.ES_18.app[2].source.productionInterval = 1000us
*.ES_18.app[2].source.initialProductionOffset = 1000us
*.ES_18.app[2].source.packetLength = 820B
*.ES_18.app[3].display-name = "ats-p5"
*.ES_18.app[3].io.destAddress = "ES_6"
*.ES_18.app[3].io.destPort = 72
*.ES_18.app[3].source.productionInterval = 2000us
*.ES_18.app[3].source.initialProductionOffset = 2000us
*.ES_18.app[3].source.packetLength = 598B
*.ES_18.app[4..10].typename = "UdpSinkApp"
*.ES_18.app[4].io.localPort = 54
*.ES_18.app[5].io.localPort = 64
*.ES_18.app[6].io.localPort = 97
*.ES_18.app[7].io.localPort = 113
*.ES_18.app[8].io.localPort = 119
*.ES_18.app[9].io.localPort = 141
*.ES_18.app[10].io.localPort = 151
*.ES_19.app[0..3].typename = "UdpSourceApp"
*.ES_19.app[0].display-name = "ats-p5"
*.ES_19.app[0].io.destAddress = "ES_27"
*.ES_19.app[0].io.destPort = 73
*.ES_19.app[0].source.productionInterval = 1000us
*.ES_19.app[0].source.initialProductionOffset = 1000us
*.ES_19.app[0].source.packetLength = 699B
*.ES_19.app[1].display-name = "ats-p6"
*.ES_19.app[1].io.destAddress = "ES_13"
*.ES_19.app[1].io.destPort = 74
*.ES_19.app[1].source.productionInterval = 2000us
*.ES_19.app[1].source.initialProductionOffset = 2000us
*.ES_19.app[1].source.packetLength = 713B
*.ES_19.app[2].display-name = "ats-p0"
*.ES_19.app[2].io.destAddress = "ES_37"
*.ES_19.app[2].io.destPort = 75
*.ES_19.app[2].source.productionInterval = 1000us
*.ES_19.app[2].source.initialProductionOffset = 1000us
*.ES_19.app[2].source.packetLength = 823B
*.ES_19.app[3].display-name = "ats-p7"
*.ES_19.app[3].io.destAddress = "ES_31"
*.ES_19.app[3].io.destPort = 76
*.ES_19.app[3].source.productionInterval = 2000us
*.ES_19.app[3].source.initialProductionOffset = 2000us
*.ES_19.app[3].source.packetLength = 852B
*.ES_19.app[4..7].typename = "UdpSinkApp"
*.ES_19.app[4].io.localPort = 11
*.ES_19.app[5].io.localPort = 45
*.ES_19.app[6].io.localPort = 52
*.ES_19.app[7].io.localPort = 121
*.ES_20.app[0..3].typename = "UdpSourceApp"
*.ES_20.app[0].display-name = "ats-p2"
*.ES_20.app[0].io.destAddress = "ES_3"
*.ES_20.app[0].io.destPort = 77
*.ES_20.app[0].source.productionInterval = 1000us
*.ES_20.app[0].source.initialProductionOffset = 1000us
*.ES_20.app[0].source.packetLength = 625B
*.ES_20.app[1].display-name = "ats-p3"
*.ES_20.app[1].io.destAddress = "ES_21"
*.ES_20.app[1].io.destPort = 78
*.ES_20.app[1].source.productionInterval = 1000us
*.ES_20.app[1].source.initialProductionOffset = 1000us
*.ES_20.app[1].source.packetLength = 786B
*.ES_20.app[2].display-name = "ats-p7"
*.ES_20.app[2].io.destAddress = "ES_9"
*.ES_20.app[2].io.destPort = 79
*.ES_20.app[2].source.productionInterval = 2000us
*.ES_20.app[2].source.initialProductionOffset = 2000us
*.ES_20.app[2].source.packetLength = 946B
*.ES_20.app[3].display-name = "ats-p3"
*.ES_20.app[3].io.destAddress = "ES_6"
*.ES_20.app[3].io.destPort = 80
*.ES_20.app[3].source.productionInterval = 1000us
*.ES_20.app[3].source.initialProductionOffset = 1000us
*.ES_20.app[3].source.packetLength = 912B
*.ES_20.app[4].typename = "UdpSinkApp"
*.ES_20.app[4].io.localPort = 101
*.ES_21.app[0..3].typename = "UdpSourceApp"
*.ES_21.app[0].display-name = "ats-p3"
*.ES_21.app[0].io.destAddress = "ES_39"
*.ES_21.app[0].io.destPort = 81
*.ES_21.app[0].source.productionInterval = 1000us
*.ES_21.app[0].source.initialProductionOffset = 1000us
*.ES_21.app[0].source.packetLength = 533B
*.ES_21.app[1].display-name = "ats-p3"
*.ES_21.app[1].io.destAddress = "ES_2"
*.ES_21.app[1].io.destPort = 82
*.ES_21.app[1].source.productionInterval = 2000us
*.ES_21.app[1].source.initialProductionOffset = 2000us
*.ES_21.app[1].source.packetLength = 638B
*.ES_21.app[2].display-name = "ats-p6"
*.ES_21.app[2].io.destAddress = "ES_38"
*.ES_21.app[2].io.destPort = 83
*.ES_21.app[2].source.productionInterval = 1000us
*.ES_21.app[2].source.initialProductionOffset = 1000us
*.ES_21.app[2].source.packetLength = 774B
*.ES_21.app[3].display-name = "ats-p7"
*.ES_21.app[3].io.destAddress = "ES_37"
*.ES_21.app[3].io.destPort = 84
*.ES_21.app[3].source.productionInterval = 1000us
*.ES_21.app[3].source.initialProductionOffset = 1000us
*.ES_21.app[3].source.packetLength = 749B
*.ES_21.app[4..5].typename = "UdpSinkApp"
*.ES_21.app[4].io.localPort = 78
*.ES_21.app[5].io.localPort = 109
*.ES_22.app[0..3].typename = "UdpSourceApp"
*.ES_22.app[0].display-name = "ats-p1"
*.ES_22.app[0].io.destAddress = "ES_24"
*.ES_22.app[0].io.destPort = 85
*.ES_22.app[0].source.productionInterval = 1000us
*.ES_22.app[0].source.initialProductionOffset = 1000us
*.ES_22.app[0].source.packetLength = 736B
*.ES_22.app[1].display-name = "ats-p2"
*.ES_22.app[1].io.destAddress = "ES_35"
*.ES_22.app[1].io.destPort = 86
*.ES_22.app[1].source.productionInterval = 1000us
*.ES_22.app[1].source.initialProductionOffset = 1000us
*.ES_22.app[1].source.packetLength = 886B
*.ES_22.app[2].display-name = "ats-p6"
*.ES_22.app[2].io.destAddress = "ES_7"
*.ES_22.app[2].io.destPort = 87
*.ES_22.app[2].source.productionInterval = 1000us
*.ES_22.app[2].source.initialProductionOffset = 1000us
*.ES_22.app[2].source.packetLength = 750B
*.ES_22.app[3].display-name = "ats-p3"
*.ES_22.app[3].io.destAddress = "ES_28"
*.ES_22.app[3].io.destPort = 88
*.ES_22.app[3].source.productionInterval = 1000us
*.ES_22.app[3].source.initialProductionOffset = 1000us
*.ES_22.app[3].source.packetLength = 931B
*.ES_22.app[4..7].typename = "UdpSinkApp"
*.ES_22.app[4].io.localPort = 19
*.ES_22.app[5].io.localPort = 47
*.ES_22.app[6].io.localPort = 128
*.ES_22.app[7].io.localPort = 135
*.ES_23.app[0..3].typename = "UdpSourceApp"
*.ES_23.app[0].display-name = "ats-p2"
*.ES_23.app[0].io.destAddress = "ES_7"
*.ES_23.app[0].io.destPort = 89
*.ES_23.app[0].source.productionInterval = 2000us
*.ES_23.app[0].source.initialProductionOffset = 2000us
*.ES_23.app[0].source.packetLength = 559B
*.ES_23.app[1].display-name = "ats-p4"
*.ES_23.app[1].io.destAddress = "ES_4"
*.ES_23.app[1].io.destPort = 90
*.ES_23.app[1].source.productionInterval = 1000us
*.ES_23.app[1].source.initialProductionOffset = 1000us
*.ES_23.app[1].source.packetLength = 974B
*.ES_23.app[2].display-name = "ats-p3"
*.ES_23.app[2].io.destAddress = "ES_12"
*.ES_23.app[2].io.destPort = 91
*.ES_23.app[2].source.productionInterval = 1000us
*.ES_23.app[2].source.initialProductionOffset = 1000us
*.ES_23.app[2].source.packetLength = 508B
*.ES_23.app[3].display-name = "ats-p1"
*.ES_23.app[3].io.destAddress = "ES_38"
*.ES_23.app[3].io.destPort = 92
*.ES_23.app[3].source.productionInterval = 2000us
*.ES_23.app[3].source.initialProductionOffset = 2000us
*.ES_23.app[3].source.packetLength = 678B
*.ES_23.app[4].typename = "UdpSinkApp"
*.ES_23.app[4].io.localPort = 156
*.ES_24.app[0..3].typename = "UdpSourceApp"
*.ES_24.app[0].display-name = "ats-p2"
*.ES_24.app[0].io.destAddress = "ES_33"
*.ES_24.app[0].io.destPort = 93
*.ES_24.app[0].source.productionInterval = 1000us