[General]
network = tsn.TSN_Network
sim-time-limit = 1.0s

# enable multiple canvas visualizers
*.visualizer.typename = "IntegratedMultiCanvasVisualizer"

# network route activity visualization
*.visualizer.numNetworkRouteVisualizers = 1
*.visualizer.networkRouteVisualizer[*].displayRoutes = true
*.visualizer.networkRouteVisualizer[0].packetFilter = "\"ats*\""
*.visualizer.networkRouteVisualizer[0].lineColor = "red1"

*.*.eth[*].bitrate = 1Gbps

# packet processing delay
*.*.bridging.directionReverser.delayer.typename = "PacketDelayer"
*.*.bridging.directionReverser.delayer.delay = 8us

*.ES_1.numApps = 8
*.ES_2.numApps = 6
*.ES_3.numApps = 5
*.ES_4.numApps = 7
*.ES_5.numApps = 6
*.ES_6.numApps = 4
*.ES_7.numApps = 5
*.ES_8.numApps = 5
*.ES_9.numApps = 4
*.ES_10.numApps = 9
*.ES_11.numApps = 8
*.ES_12.numApps = 7
*.ES_13.numApps = 7
*.ES_14.numApps = 3
*.ES_15.numApps = 6
*.ES_1.app[0..2].typename = "UdpSourceApp"
*.ES_1.app[0].display-name = "ats-p7"
*.ES_1.app[0].io.destAddress = "ES_11"
*.ES_1.app[0].io.destPort = 1
*.ES_1.app[0].source.productionInterval = 2000us
*.ES_1.app[0].source.initialProductionOffset = 2000us
*.ES_1.app[0].source.packetLength = 923B
*.ES_1.app[1].display-name = "ats-p7"
*.ES_1.app[1].io.destAddress = "ES_12"
*.ES_1.app[1].io.destPort = 2
*.ES_1.app[1].source.productionInterval = 2000us
*.ES_1.app[1].source.initialProductionOffset = 2000us
*.ES_1.app[1].source.packetLength = 530B
*.ES_1.app[2].display-name = "ats-p5"
*.ES_1.app[2].io.destAddress = "ES_13"
*.ES_1.app[2].io.destPort = 3
*.ES_1.app[2].source.productionInterval = 1000us
*.ES_1.app[2].source.initialProductionOffset = 1000us
*.ES_1.app[2].source.packetLength = 909B
*.ES_1.app[3..7].typename = "UdpSinkApp"
*.ES_1.app[3].io.localPort = 4
*.ES_1.app[4].io.localPort = 10
*.ES_1.app[5].io.localPort = 18
*.ES_1.app[6].io.localPort = 25
*.ES_1.app[7].io.localPort = 39
*.ES_2.app[0..2].typename = "UdpSourceApp"
*.ES_2.app[0].display-name = "ats-p3"
*.ES_2.app[0].io.destAddress = "ES_1"
*.ES_2.app[0].io.destPort = 4
*.ES_2.app[0].source.productionInterval = 500us
*.ES_2.app[0].source.initialProductionOffset = 500us
*.ES_2.app[0].source.packetLength = 975B
*.ES_2.app[1].display-name = "ats-p7"
*.ES_2.app[1].io.destAddress = "ES_15"
*.ES_2.app[1].io.destPort = 5
*.ES_2.app[1].source.productionInterval = 500us
*.ES_2.app[1].source.initialProductionOffset = 500us
*.ES_2.app[1].source.packetLength = 824B
*.ES_2.app[2].display-name = "ats-p2"
*.ES_2.app[2].io.destAddress = "ES_12"
*.ES_2.app[2].io.destPort = 6
*.ES_2.app[2].source.productionInterval = 1000us
*.ES_2.app[2].source.initialProductionOffset = 1000us
*.ES_2.app[2].source.packetLength = 556B
*.ES_2.app[3..5].typename = "UdpSinkApp"
*.ES_2.app[3].io.localPort = 22
*.ES_2.app[4].io.localPort = 30
*.ES_2.app[5].io.localPort = 44
*.ES_3.app[0..2].typename = "UdpSourceApp"
*.ES_3.app[0].display-name = "ats-p0"
*.ES_3.app[0].io.destAddress = "ES_4"
*.ES_3.app[0].io.destPort = 7
*.ES_3.app[0].source.productionInterval = 1000us
*.ES_3.app[0].source.initialProductionOffset = 1000us
*.ES_3.app[0].source.packetLength = 541B
*.ES_3.app[1].display-name = "ats-p0"
*.ES_3.app[1].io.destAddress = "ES_7"
*.ES_3.app[1].io.destPort = 8
*.ES_3.app[1].source.productionInterval = 500us
*.ES_3.app[1].source.initialProductionOffset = 500us
*.ES_3.app[1].source.packetLength = 508B
*.ES_3.app[2].display-name = "ats-p6"
*.ES_3.app[2].io.destAddress = "ES_11"
*.ES_3.app[2].io.destPort = 9
*.ES_3.app[2].source.productionInterval = 1000us
*.ES_3.app[2].source.initialProductionOffset = 1000us
*.ES_3.app[2].source.packetLength = 644B
*.ES_3.app[3..4].typename = "UdpSinkApp"
*.ES_3.app[3].io.localPort = 29
*.ES_3.app[4].io.localPort = 33
*.ES_4.app[0..2].typename = "UdpSourceApp"
*.ES_4.app[0].display-name = "ats-p7"
*.ES_4.app[0].io.destAddress = "ES_1"
*.ES_4.app[0].io.destPort = 10
*.ES_4.app[0].source.productionInterval = 2000us
*.ES_4.app[0].source.initialProductionOffset = 2000us
*.ES_4.app[0].source.packetLength = 768B
*.ES_4.app[1].display-name = "ats-p2"
*.ES_4.app[1].io.destAddress = "ES_13"
*.ES_4.app[1].io.destPort = 11
*.ES_4.app[1].source.productionInterval = 2000us
*.ES_4.app[1].source.initialProductionOffset = 2000us
*.ES_4.app[1].source.packetLength = 511B
*.ES_4.app[2].display-name = "ats-p6"
*.ES_4.app[2].io.destAddress = "ES_8"
*.ES_4.app[2].io.destPort = 12
*.ES_4.app[2].source.productionInterval = 2000us
*.ES_4.app[2].source.initialProductionOffset = 2000us
*.ES_4.app[2].source.packetLength = 591B
*.ES_4.app[3..6].typename = "UdpSinkApp"
*.ES_4.app[3].io.localPort = 7
*.ES_4.app[4].io.localPort = 16
*.ES_4.app[5].io.localPort = 34
*.ES_4.app[6].io.localPort = 41
*.ES_5.app[0..2].typename = "UdpSourceApp"
*.ES_5.app[0].display-name = "ats-p4"
*.ES_5.app[0].io.destAddress = "ES_15"
*.ES_5.app[0].io.destPort = 13
*.ES_5.app[0].source.productionInterval = 500us
*.ES_5.app[0].source.initialProductionOffset = 500us
*.ES_5.app[0].source.packetLength = 587B
*.ES_5.app[1].display-name = "ats-p2"
*.ES_5.app[1].io.destAddress = "ES_8"
*.ES_5.app[1].io.destPort = 14
*.ES_5.app[1].source.productionInterval = 500us
*.ES_5.app[1].source.initialProductionOffset = 500us
*.ES_5.app[1].source.packetLength = 970B
*.ES_5.app[2].display-name = "ats-p3"
*.ES_5.app[2].io.destAddress = "ES_10"
*.ES_5.app[2].io.destPort = 15
*.ES_5.app[2].source.productionInterval = 500us
*.ES_5.app[2].source.initialProductionOffset = 500us
*.ES_5.app[2].source.packetLength = 514B
*.ES_5.app[3..5].typename = "UdpSinkApp"
*.ES_5.app[3].io.localPort = 26
*.ES_5.app[4].io.localPort = 27
*.ES_5.app[5].io.localPort = 37
*.ES_6.app[0..2].typename = "UdpSourceApp"
*.ES_6.app[0].display-name = "ats-p6"
*.ES_6.app[0].io.destAddress = "ES_4"
*.ES_6.app[0].io.destPort = 16
*.ES_6.app[0].source.productionInterval = 1000us
*.ES_6.app[0].source.initialProductionOffset = 1000us
*.ES_6.app[0].source.packetLength = 818B
*.ES_6.app[1].display-name = "ats-p4"
*.ES_6.app[1].io.destAddress = "ES_10"
*.ES_6.app[1].io.destPort = 17
*.ES_6.app[1].source.productionInterval = 500us
*.ES_6.app[1].source.initialProductionOffset = 500us
*.ES_6.app[1].source.packetLength = 971B
*.ES_6.app[2].display-name = "ats-p3"
*.ES_6.app[2].io.destAddress = "ES_1"
*.ES_6.app[2].io.destPort = 18
*.ES_6.app[2].source.productionInterval = 1000us
*.ES_6.app[2].source.initialProductionOffset = 1000us
*.ES_6.app[2].source.packetLength = 683B
*.ES_6.app[3].typename = "UdpSinkApp"
*.ES_6.app[3].io.localPort = 38
*.ES_7.app[0..2].typename = "UdpSourceApp"
*.ES_7.app[0].display-name = "ats-p0"
*.ES_7.app[0].io.destAddress = "ES_10"
*.ES_7.app[0].io.destPort = 19
*.ES_7.app[0].source.productionInterval = 500us
*.ES_7.app[0].source.initialProductionOffset = 500us
*.ES_7.app[0].source.packetLength = 550B
*.ES_7.app[1].display-name = "ats-p3"
*.ES_7.app[1].io.destAddress = "ES_15"
*.ES_7.app[1].io.destPort = 20
*.ES_7.app[1].source.productionInterval = 500us
*.ES_7.app[1].source.initialProductionOffset = 500us
*.ES_7.app[1].source.packetLength = 844B
*.ES_7.app[2].display-name = "ats-p1"
*.ES_7.app[2].io.destAddress = "ES_11"
*.ES_7.app[2].io.destPort = 21
*.ES_7.app[2].source.productionInterval = 500us
*.ES_7.app[2].source.initialProductionOffset = 500us
*.ES_7.app[2].source.packetLength = 616B
*.ES_7.app[3..4].typename = "UdpSinkApp"
*.ES_7.app[3].io.localPort = 8
*.ES_7.app[4].io.localPort = 28
*.ES_8.app[0..2].typename = "UdpSourceApp"
*.ES_8.app[0].display-name = "ats-p7"
*.ES_8.app[0].io.destAddress = "ES_2"
*.ES_8.app[0].io.destPort = 22
*.ES_8.app[0].source.productionInterval = 2000us
*.ES_8.app[0].source.initialProductionOffset = 2000us
*.ES_8.app[0].source.packetLength = 636B
*.ES_8.app[1].display-name = "ats-p1"
*.ES_8.app[1].io.destAddress = "ES_13"
*.ES_8.app[1].io.destPort = 23
*.ES_8.app[1].source.productionInterval = 2000us
*.ES_8.app[1].source.initialProductionOffset = 2000us
*.ES_8.app[1].source.packetLength = 515B
*.ES_8.app[2].display-name = "ats-p0"
*.ES_8.app[2].io.destAddress = "ES_13"
*.ES_8.app[2].io.destPort = 24
*.ES_8.app[2].source.productionInterval = 500us
*.ES_8.app[2].source.initialProductionOffset = 500us
*.ES_8.app[2].source.packetLength = 653B
*.ES_8.app[3..4].typename = "UdpSinkApp"
*.ES_8.app[3].io.localPort = 12
*.ES_8.app[4].io.localPort = 14
*.ES_9.app[0..2].typename = "UdpSourceApp"
*.ES_9.app[0].display-name = "ats-p0"
*.ES_9.app[0].io.destAddress = "ES_1"
*.ES_9.app[0].io.destPort = 25
*.ES_9.app[0].source.productionInterval = 1000us
*.ES_9.app[0].source.initialProductionOffset = 1000us
*.ES_9.app[0].source.packetLength = 594B
*.ES_9.app[1].display-name = "ats-p5"
*.ES_9.app[1].io.destAddress = "ES_5"
*.ES_9.app[1].io.destPort = 26
*.ES_9.app[1].source.productionInterval = 2000us
*.ES_9.app[1].source.initialProductionOffset = 2000us
*.ES_9.app[1].source.packetLength = 548B
*.ES_9.app[2].display-name = "ats-p0"
*.ES_9.app[2].io.destAddress = "ES_5"
*.ES_9.app[2].io.destPort = 27
*.ES_9.app[2].source.productionInterval = 500us
*.ES_9.app[2].source.initialProductionOffset = 500us
*.ES_9.app[2].source.packetLength = 720B
*.ES_9.app[3].typename = "UdpSinkApp"
*.ES_9.app[3].io.localPort = 31
*.ES_10.app[0..2].typename = "UdpSourceApp"
*.ES_10.app[0].display-name = "ats-p4"
*.ES_10.app[0].io.destAddress = "ES_7"
*.ES_10.app[0].io.destPort = 28
*.ES_10.app[0].source.productionInterval = 2000us
*.ES_10.app[0].source.initialProductionOffset = 2000us
*.ES_10.app[0].source.packetLength = 515B
*.ES_10.app[1].display-name = "ats-p3"
*.ES_10.app[1].io.destAddress = "ES_3"
*.ES_10.app[1].io.destPort = 29
*.ES_10.app[1].source.productionInterval = 2000us
*.ES_10.app[1].source.initialProductionOffset = 2000us
*.ES_10.app[1].source.packetLength = 903B
*.ES_10.app[2].display-name = "ats-p1"
*.ES_10.app[2].io.destAddress = "ES_2"
*.ES_10.app[2].io.destPort = 30
*.ES_10.app[2].source.productionInterval = 1000us
*.ES_10.app[2].source.initialProductionOffset = 1000us
*.ES_10.app[2].source.packetLength = 717B
*.ES_10.app[3..8].typename = "UdpSinkApp"
*.ES_10.app[3].io.localPort = 15
*.ES_10.app[4].io.localPort = 17
*.ES_10.app[5].io.localPort = 19
*.ES_10.app[6].io.localPort = 35
*.ES_10.app[7].io.localPort = 40
*.ES_10.app[8].io.localPort = 45
*.ES_11.app[0..2].typename = "UdpSourceApp"
*.ES_11.app[0].display-name = "ats-p0"
*.ES_11.app[0].io.destAddress = "ES_9"
*.ES_11.app[0].io.destPort = 31
*.ES_11.app[0].source.productionInterval = 1000us
*.ES_11.app[0].source.initialProductionOffset = 1000us
*.ES_11.app[0].source.packetLength = 969B
*.ES_11.app[1].display-name = "ats-p6"
*.ES_11.app[1].io.destAddress = "ES_12"
*.ES_11.app[1].io.destPort = 32
*.ES_11.app[1].source.productionInterval = 1000us
*.ES_11.app[1].source.initialProductionOffset = 1000us
*.ES_11.app[1].source.packetLength = 859B
*.ES_11.app[2].display-name = "ats-p7"
*.ES_11.app[2].io.destAddress = "ES_3"
*.ES_11.app[2].io.destPort = 33
*.ES_11.app[2].source.productionInterval = 500us
*.ES_11.app[2].source.initialProductionOffset = 500us
*.ES_11.app[2].source.packetLength = 829B
*.ES_11.app[3..7].typename = "UdpSinkApp"
*.ES_11.app[3].io.localPort = 1
*.ES_11.app[4].io.localPort = 9
*.ES_11.app[5].io.localPort = 21
*.ES_11.app[6].io.localPort = 36
*.ES_11.app[7].io.localPort = 42
*.ES_12.app[0..2].typename = "UdpSourceApp"
*.ES_12.app[0].display-name = "ats-p4"
*.ES_12.app[0].io.destAddress = "ES_4"
*.ES_12.app[0].io.destPort = 34
*.ES_12.app[0].source.productionInterval = 1000us
*.ES_12.app[0].source.initialProductionOffset = 1000us
*.ES_12.app[0].source.packetLength = 705B
*.ES_12.app[1].display-name = "ats-p6"
*.ES_12.app[1].io.destAddress = "ES_10"
*.ES_12.app[1].io.destPort = 35
*.ES_12.app[1].source.productionInterval = 1000us
*.ES_12.app[1].source.initialProductionOffset = 1000us
*.ES_12.app[1].source.packetLength = 956B
*.ES_12.app[2].display-name = "ats-p2"
*.ES_12.app[2].io.destAddress = "ES_11"
*.ES_12.app[2].io.destPort = 36
*.ES_12.app[2].source.productionInterval = 2000us
*.ES_12.app[2].source.initialProductionOffset = 2000us
*.ES_12.app[2].source.packetLength = 844B
*.ES_12.app[3..6].typename = "UdpSinkApp"
*.ES_12.app[3].io.localPort = 2
*.ES_12.app[4].io.localPort = 6
*.ES_12.app[5].io.localPort = 32
*.ES_12.app[6].io.localPort = 43
*.ES_13.app[0..2].typename = "UdpSourceApp"
*.ES_13.app[0].display-name = "ats-p3"
*.ES_13.app[0].io.destAddress = "ES_5"
*.ES_13.app[0].io.destPort = 37
*.ES_13.app[0].source.productionInterval = 500us
*.ES_13.app[0].source.initialProductionOffset = 500us
*.ES_13.app[0].source.packetLength = 500B
*.ES_13.app[1].display-name = "ats-p0"
*.ES_13.app[1].io.destAddress = "ES_6"
*.ES_13.app[1].io.destPort = 38
*.ES_13.app[1].source.productionInterval = 2000us
*.ES_13.app[1].source.initialProductionOffset = 2000us
*.ES_13.app[1].source.packetLength = 620B
*.ES_13.app[2].display-name = "ats-p6"
*.ES_13.app[2].io.destAddress = "ES_1"
*.ES_13.app[2].io.destPort = 39
*.ES_13.app[2].source.productionInterval = 2000us
*.ES_13.app[2].source.initialProductionOffset = 2000us
*.ES_13.app[2].source.packetLength = 810B
*.ES_13.app[3..6].typename = "UdpSinkApp"
*.ES_13.app[3].io.localPort = 3
*.ES_13.app[4].io.localPort = 11
*.ES_13.app[5].io.localPort = 23
*.ES_13.app[6].io.localPort = 24
*.ES_14.app[0..2].typename = "UdpSourceApp"
*.ES_14.app[0].display-name = "ats-p1"
*.ES_14.app[0].io.destAddress = "ES_10"
*.ES_14.app[0].io.destPort = 40
*.ES_14.app[0].source.productionInterval = 2000us
*.ES_14.app[0].source.initialProductionOffset = 2000us
*.ES_14.app[0].source.packetLength = 756B
*.ES_14.app[1].display-name = "ats-p2"
*.ES_14.app[1].io.destAddress = "ES_4"
*.ES_14.app[1].io.destPort = 41
*.ES_14.app[1].source.productionInterval = 500us
*.ES_14.app[1].source.initialProductionOffset = 500us
*.ES_14.app[1].source.packetLength = 969B
*.ES_14.app[2].display-name = "ats-p3"
*.ES_14.app[2].io.destAddress = "ES_11"
*.ES_14.app[2].io.destPort = 42
*.ES_14.app[2].source.productionInterval = 1000us
*.ES_14.app[2].source.initialProductionOffset = 1000us
*.ES_14.app[2].source.packetLength = 697B
*.ES_15.app[0..2].typename = "UdpSourceApp"
*.ES_15.app[0].display-name = "ats-p3"
*.ES_15.app[0].io.destAddress = "ES_12"
*.ES_15.app[0].io.destPort = 43
*.ES_15.app[0].source.productionInterval = 500us
*.ES_15.app[0].source.initialProductionOffset = 500us
*.ES_15.app[0].source.packetLength = 915B
*.ES_15.app[1].display-name = "ats-p6"
*.ES_15.app[1].io.destAddress = "ES_2"
*.ES_15.app[1].io.destPort = 44
*.ES_15.app[1].source.productionInterval = 2000us
*.ES_15.app[1].source.initialProductionOffset = 2000us
*.ES_15.app[1].source.packetLength = 787B
*.ES_15.app[2].display-name = "ats-p5"
*.ES_15.app[2].io.destAddress = "ES_10"
*.ES_15.app[2].io.destPort = 45
*.ES_15.app[2].source.productionInterval = 2000us
*.ES_15.app[2].source.initialProductionOffset = 2000us
*.ES_15.app[2].source.packetLength = 941B
*.ES_15.app[3..5].typename = "UdpSinkApp"
*.ES_15.app[3].io.localPort = 5
*.ES_15.app[4].io.localPort = 13
*.ES_15.app[5].io.localPort = 20

*.ES*.hasUdp = firstAvailableOrEmpty("Udp") != ""

# steering stream identification and coding
*.ES*.bridging.streamIdentifier.identifier.mapping = [{stream :"ats-p0", packetFilter: expr(udp.destPort == 7 || udp.destPort == 8 || udp.destPort == 19 || udp.destPort == 24 || udp.destPort == 25 || udp.destPort == 27 || udp.destPort == 31 || udp.destPort == 38)}, {stream :"ats-p1", packetFilter: expr(udp.destPort == 21 || udp.destPort == 23 || udp.destPort == 30 || udp.destPort == 40)}, {stream :"ats-p2", packetFilter: expr(udp.destPort == 6 || udp.destPort == 11 || udp.destPort == 14 || udp.destPort == 36 || udp.destPort == 41)}, {stream :"ats-p3", packetFilter: expr(udp.destPort == 4 || udp.destPort == 15 || udp.destPort == 18 || udp.destPort == 20 || udp.destPort == 29 || udp.destPort == 37 || udp.destPort == 42 || udp.destPort == 43)}, {stream :"ats-p4", packetFilter: expr(udp.destPort == 13 || udp.destPort == 17 || udp.destPort == 28 || udp.destPort == 34)}, {stream :"ats-p5", packetFilter: expr(udp.destPort == 3 || udp.destPort == 26 || udp.destPort == 45)}, {stream :"ats-p6", packetFilter: expr(udp.destPort == 9 || udp.destPort == 12 || udp.destPort == 16 || udp.destPort == 32 || udp.destPort == 35 || udp.destPort == 39 || udp.destPort == 44)}, {stream :"ats-p7", packetFilter: expr(udp.destPort == 1 || udp.destPort == 2 || udp.destPort == 5 || udp.destPort == 10 || udp.destPort == 22 || udp.destPort == 33)}]

*.ES*.bridging.streamFilter.ingress.classifier.mapping = { "ats-p0": 0 , "ats-p1": 1, "ats-p2": 2, "ats-p3": 3, "ats-p4": 4, "ats-p5": 5, "ats-p6": 6, "ats-p7": 7}
*.ES*.eth[*].macLayer.queue.numTrafficClasses = 8
*.ES*.eth[*].macLayer.queue.numQueues = 8
*.ES*.eth[*].macLayer.queue.*[0].display-name = "ats-p0"
*.ES*.eth[*].macLayer.queue.*[1].display-name = "ats-p1"
*.ES*.eth[*].macLayer.queue.*[2].display-name = "ats-p2"
*.ES*.eth[*].macLayer.queue.*[3].display-name = "ats-p3"
*.ES*.eth[*].macLayer.queue.*[4].display-name = "ats-p4"
*.ES*.eth[*].macLayer.queue.*[5].display-name = "ats-p5"
*.ES*.eth[*].macLayer.queue.*[6].display-name = "ats-p6"
*.ES*.eth[*].macLayer.queue.*[7].display-name = "ats-p7"

# client stream encoding
*.ES*.bridging.streamCoder.encoder.mapping = [{stream: "ats-p0", pcp: 0}, {stream: "ats-p1", pcp: 1}, {stream: "ats-p2", pcp: 2}, {stream: "ats-p3", pcp: 3}, {stream: "ats-p4", pcp: 4}, {stream: "ats-p5", pcp: 5}, {stream: "ats-p6", pcp: 6}, {stream: "ats-p7", pcp: 7}]

# enable streams
*.Switch*.hasIncomingStreams = true
*.Switch*.hasOutgoingStreams = true
*.ES*.hasIncomingStreams = true
*.ES*.hasOutgoingStreams = true

# stream coder mappings for switches
*.Switch*.bridging.streamCoder.encoder.mapping = [{stream: "ats-p0", pcp: 0}, {stream: "ats-p1", pcp: 1}, {stream: "ats-p2", pcp: 2}, {stream: "ats-p3", pcp: 3}, {stream: "ats-p4", pcp: 4}, {stream: "ats-p5", pcp: 5}, {stream: "ats-p6", pcp: 6}, {stream: "ats-p7", pcp: 7}]
*.Switch*.bridging.streamCoder.decoder.mapping = [{stream: "ats-p0", pcp: 0}, {stream: "ats-p1", pcp: 1}, {stream: "ats-p2", pcp: 2}, {stream: "ats-p3", pcp: 3}, {stream: "ats-p4", pcp: 4}, {stream: "ats-p5", pcp: 5}, {stream: "ats-p6", pcp: 6}, {stream: "ats-p7", pcp: 7}]
*.Switch*.eth[*].macLayer.queue.classifier.mapping = [[0,0,0,0,0,0,0,0], [1,1,1,1,1,1,1,1], [2,2,2,2,2,2,2,2], [3,3,3,3,3,3,3,3], [4,4,4,4,4,4,4,4], [5,5,5,5,5,5,5,5], [6,6,6,6,6,6,6,6], [7,7,7,7,7,7,7,7]]

# enable ingress per-stream filtering
*.Switch*.hasIngressTrafficFiltering = true

# enable egress traffic shaping
*.*.hasEgressTrafficShaping = true

# asynchronous shaper traffic metering
*.Switch*.bridging.streamFilter.ingress.numStreams = 8
*.Switch*.bridging.streamFilter.ingress.classifier.mapping = { "ats-p0": 0 , "ats-p1": 1, "ats-p2": 2, "ats-p3": 3, "ats-p4": 4, "ats-p5": 5, "ats-p6": 6, "ats-p7": 7 }
*.Switch*.bridging.streamFilter.ingress.*[0].display-name = "ats-p0"
*.Switch*.bridging.streamFilter.ingress.*[1].display-name = "ats-p1"
*.Switch*.bridging.streamFilter.ingress.*[2].display-name = "ats-p2"
*.Switch*.bridging.streamFilter.ingress.*[3].display-name = "ats-p3"
*.Switch*.bridging.streamFilter.ingress.*[4].display-name = "ats-p4"
*.Switch*.bridging.streamFilter.ingress.*[5].display-name = "ats-p5"
*.Switch*.bridging.streamFilter.ingress.*[6].display-name = "ats-p6"
*.Switch*.bridging.streamFilter.ingress.*[7].display-name = "ats-p7"
*.Switch*.bridging.streamFilter.ingress.meter[*].typename = "EligibilityTimeMeter"
*.Switch*.bridging.streamFilter.ingress.filter[*].typename = "EligibilityTimeFilter"

*.Switch*.bridging.streamFilter.ingress.meter[0].committedInformationRate = 100Mbps
*.Switch*.bridging.streamFilter.ingress.meter[0].committedBurstSize = 500B
*.Switch*.bridging.streamFilter.ingress.meter[1].committedInformationRate = 100Mbps
*.Switch*.bridging.streamFilter.ingress.meter[1].committedBurstSize = 500B
*.Switch*.bridging.streamFilter.ingress.meter[2].committedInformationRate = 100Mbps
*.Switch*.bridging.streamFilter.ingress.meter[2].committedBurstSize = 500B
*.Switch*.bridging.streamFilter.ingress.meter[3].committedInformationRate = 100Mbps
*.Switch*.bridging.streamFilter.ingress.meter[3].committedBurstSize = 500B
*.Switch*.bridging.streamFilter.ingress.meter[4].committedInformationRate = 100Mbps
*.Switch*.bridging.streamFilter.ingress.meter[4].committedBurstSize = 500B
*.Switch*.bridging.streamFilter.ingress.meter[5].committedInformationRate = 100Mbps
*.Switch*.bridging.streamFilter.ingress.meter[5].committedBurstSize = 500B
*.Switch*.bridging.streamFilter.ingress.meter[6].committedInformationRate = 100Mbps
*.Switch*.bridging.streamFilter.ingress.meter[6].committedBurstSize = 500B
*.Switch*.bridging.streamFilter.ingress.meter[7].committedInformationRate = 100Mbps
*.Switch*.bridging.streamFilter.ingress.meter[7].committedBurstSize = 500B

# asynchronous traffic shaping
*.Switch*.eth[*].macLayer.queue.numTrafficClasses = 8
*.Switch*.eth[*].macLayer.queue.numQueues = 8
*.Switch*.eth[*].macLayer.queue.*[0].display-name = "ats-p0"
*.Switch*.eth[*].macLayer.queue.*[1].display-name = "ats-p1"
*.Switch*.eth[*].macLayer.queue.*[2].display-name = "ats-p2"
*.Switch*.eth[*].macLayer.queue.*[3].display-name = "ats-p3"
*.Switch*.eth[*].macLayer.queue.*[4].display-name = "ats-p4"
*.Switch*.eth[*].macLayer.queue.*[5].display-name = "ats-p5"
*.Switch*.eth[*].macLayer.queue.*[6].display-name = "ats-p6"
*.Switch*.eth[*].macLayer.queue.*[7].display-name = "ats-p7"
*.Switch*.eth[*].macLayer.queue.queue[*].typename = "EligibilityTimeQueue"
*.Switch*.eth[*].macLayer.queue.transmissionSelectionAlgorithm[*].typename = "Ieee8021qAsynchronousShaper"
