[General]
network = tsn.TSN_Network
sim-time-limit = 1.0s

# enable multiple canvas visualizers
*.visualizer.typename = "IntegratedMultiCanvasVisualizer"

# network route activity visualization
*.visualizer.numNetworkRouteVisualizers = 1
*.visualizer.networkRouteVisualizer[*].displayRoutes = true
*.visualizer.networkRouteVisualizer[0].packetFilter = "\"ats*\""
*.visualizer.networkRouteVisualizer[0].lineColor = "red1"

*.*.eth[*].bitrate = 1Gbps

# packet processing delay
*.*.bridging.directionReverser.delayer.typename = "PacketDelayer"
*.*.bridging.directionReverser.delayer.delay = 8us

*.ES_1.numApps = 16
*.ES_2.numApps = 9
*.ES_3.numApps = 17
*.ES_4.numApps = 10
*.ES_5.numApps = 15
*.ES_6.numApps = 11
*.ES_7.numApps = 9
*.ES_8.numApps = 17
*.ES_9.numApps = 13
*.ES_10.numApps = 8
*.ES_11.numApps = 9
*.ES_12.numApps = 11
*.ES_13.numApps = 10
*.ES_14.numApps = 8
*.ES_15.numApps = 11
*.ES_16.numApps = 10
*.ES_17.numApps = 13
*.ES_18.numApps = 13
*.ES_19.numApps = 12
*.ES_20.numApps = 8
*.ES_21.numApps = 10
*.ES_22.numApps = 13
*.ES_23.numApps = 14
*.ES_24.numApps = 14
*.ES_25.numApps = 10
*.ES_26.numApps = 13
*.ES_27.numApps = 13
*.ES_28.numApps = 12
*.ES_29.numApps = 9
*.ES_30.numApps = 18
*.ES_31.numApps = 15
*.ES_32.numApps = 12
*.ES_33.numApps = 9
*.ES_34.numApps = 14
*.ES_35.numApps = 12
*.ES_36.numApps = 10
*.ES_37.numApps = 15
*.ES_38.numApps = 9
*.ES_39.numApps = 12
*.ES_40.numApps = 16
*.ES_1.app[0..5].typename = "UdpSourceApp"
*.ES_1.app[0].display-name = "ats-p5"
*.ES_1.app[0].io.destAddress = "ES_34"
*.ES_1.app[0].io.destPort = 1
*.ES_1.app[0].source.productionInterval = 2000us
*.ES_1.app[0].source.initialProductionOffset = 2000us
*.ES_1.app[0].source.packetLength = 667B
*.ES_1.app[1].display-name = "ats-p3"
*.ES_1.app[1].io.destAddress = "ES_40"
*.ES_1.app[1].io.destPort = 2
*.ES_1.app[1].source.productionInterval = 1500us
*.ES_1.app[1].source.initialProductionOffset = 1500us
*.ES_1.app[1].source.packetLength = 617B
*.ES_1.app[2].display-name = "ats-p0"
*.ES_1.app[2].io.destAddress = "ES_18"
*.ES_1.app[2].io.destPort = 3
*.ES_1.app[2].source.productionInterval = 1500us
*.ES_1.app[2].source.initialProductionOffset = 1500us
*.ES_1.app[2].source.packetLength = 691B
*.ES_1.app[3].display-name = "ats-p3"
*.ES_1.app[3].io.destAddress = "ES_31"
*.ES_1.app[3].io.destPort = 4
*.ES_1.app[3].source.productionInterval = 2000us
*.ES_1.app[3].source.initialProductionOffset = 2000us
*.ES_1.app[3].source.packetLength = 660B
*.ES_1.app[4].display-name = "ats-p7"
*.ES_1.app[4].io.destAddress = "ES_3"
*.ES_1.app[4].io.destPort = 5
*.ES_1.app[4].source.productionInterval = 1500us
*.ES_1.app[4].source.initialProductionOffset = 1500us
*.ES_1.app[4].source.packetLength = 658B
*.ES_1.app[5].display-name = "ats-p4"
*.ES_1.app[5].io.destAddress = "ES_35"
*.ES_1.app[5].io.destPort = 6
*.ES_1.app[5].source.productionInterval = 1500us
*.ES_1.app[5].source.initialProductionOffset = 1500us
*.ES_1.app[5].source.packetLength = 742B
*.ES_1.app[6..15].typename = "UdpSinkApp"
*.ES_1.app[6].io.localPort = 12
*.ES_1.app[7].io.localPort = 35
*.ES_1.app[8].io.localPort = 84
*.ES_1.app[9].io.localPort = 107
*.ES_1.app[10].io.localPort = 134
*.ES_1.app[11].io.localPort = 149
*.ES_1.app[12].io.localPort = 189
*.ES_1.app[13].io.localPort = 205
*.ES_1.app[14].io.localPort = 229
*.ES_1.app[15].io.localPort = 232
*.ES_2.app[0..5].typename = "UdpSourceApp"
*.ES_2.app[0].display-name = "ats-p6"
*.ES_2.app[0].io.destAddress = "ES_6"
*.ES_2.app[0].io.destPort = 7
*.ES_2.app[0].source.productionInterval = 2000us
*.ES_2.app[0].source.initialProductionOffset = 2000us
*.ES_2.app[0].source.packetLength = 710B
*.ES_2.app[1].display-name = "ats-p5"
*.ES_2.app[1].io.destAddress = "ES_34"
*.ES_2.app[1].io.destPort = 8
*.ES_2.app[1].source.productionInterval = 2000us
*.ES_2.app[1].source.initialProductionOffset = 2000us
*.ES_2.app[1].source.packetLength = 790B
*.ES_2.app[2].display-name = "ats-p5"
*.ES_2.app[2].io.destAddress = "ES_19"
*.ES_2.app[2].io.destPort = 9
*.ES_2.app[2].source.productionInterval = 2000us
*.ES_2.app[2].source.initialProductionOffset = 2000us
*.ES_2.app[2].source.packetLength = 622B
*.ES_2.app[3].display-name = "ats-p6"
*.ES_2.app[3].io.destAddress = "ES_37"
*.ES_2.app[3].io.destPort = 10
*.ES_2.app[3].source.productionInterval = 2000us
*.ES_2.app[3].source.initialProductionOffset = 2000us
*.ES_2.app[3].source.packetLength = 525B
*.ES_2.app[4].display-name = "ats-p1"
*.ES_2.app[4].io.destAddress = "ES_22"
*.ES_2.app[4].io.destPort = 11
*.ES_2.app[4].source.productionInterval = 1500us
*.ES_2.app[4].source.initialProductionOffset = 1500us
*.ES_2.app[4].source.packetLength = 659B
*.ES_2.app[5].display-name = "ats-p1"
*.ES_2.app[5].io.destAddress = "ES_1"
*.ES_2.app[5].io.destPort = 12
*.ES_2.app[5].source.productionInterval = 1500us
*.ES_2.app[5].source.initialProductionOffset = 1500us
*.ES_2.app[5].source.packetLength = 587B
*.ES_2.app[6..8].typename = "UdpSinkApp"
*.ES_2.app[6].io.localPort = 93
*.ES_2.app[7].io.localPort = 101
*.ES_2.app[8].io.localPort = 138
*.ES_3.app[0..5].typename = "UdpSourceApp"
*.ES_3.app[0].display-name = "ats-p5"
*.ES_3.app[0].io.destAddress = "ES_15"
*.ES_3.app[0].io.destPort = 13
*.ES_3.app[0].source.productionInterval = 2000us
*.ES_3.app[0].source.initialProductionOffset = 2000us
*.ES_3.app[0].source.packetLength = 533B
*.ES_3.app[1].display-name = "ats-p0"
*.ES_3.app[1].io.destAddress = "ES_22"
*.ES_3.app[1].io.destPort = 14
*.ES_3.app[1].source.productionInterval = 1500us
*.ES_3.app[1].source.initialProductionOffset = 1500us
*.ES_3.app[1].source.packetLength = 597B
*.ES_3.app[2].display-name = "ats-p0"
*.ES_3.app[2].io.destAddress = "ES_24"
*.ES_3.app[2].io.destPort = 15
*.ES_3.app[2].source.productionInterval = 2000us
*.ES_3.app[2].source.initialProductionOffset = 2000us
*.ES_3.app[2].source.packetLength = 500B
*.ES_3.app[3].display-name = "ats-p7"
*.ES_3.app[3].io.destAddress = "ES_28"
*.ES_3.app[3].io.destPort = 16
*.ES_3.app[3].source.productionInterval = 2000us
*.ES_3.app[3].source.initialProductionOffset = 2000us
*.ES_3.app[3].source.packetLength = 680B
*.ES_3.app[4].display-name = "ats-p5"
*.ES_3.app[4].io.destAddress = "ES_13"
*.ES_3.app[4].io.destPort = 17
*.ES_3.app[4].source.productionInterval = 2000us
*.ES_3.app[4].source.initialProductionOffset = 2000us
*.ES_3.app[4].source.packetLength = 711B
*.ES_3.app[5].display-name = "ats-p7"
*.ES_3.app[5].io.destAddress = "ES_18"
*.ES_3.app[5].io.destPort = 18
*.ES_3.app[5].source.productionInterval = 2000us
*.ES_3.app[5].source.initialProductionOffset = 2000us
*.ES_3.app[5].source.packetLength = 754B
*.ES_3.app[6..16].typename = "UdpSinkApp"
*.ES_3.app[6].io.localPort = 5
*.ES_3.app[7].io.localPort = 26
*.ES_3.app[8].io.localPort = 49
*.ES_3.app[9].io.localPort = 65
*.ES_3.app[10].io.localPort = 81
*.ES_3.app[11].io.localPort = 82
*.ES_3.app[12].io.localPort = 98
*.ES_3.app[13].io.localPort = 173
*.ES_3.app[14].io.localPort = 199
*.ES_3.app[15].io.localPort = 207
*.ES_3.app[16].io.localPort = 214
*.ES_4.app[0..5].typename = "UdpSourceApp"
*.ES_4.app[0].display-name = "ats-p1"
*.ES_4.app[0].io.destAddress = "ES_18"
*.ES_4.app[0].io.destPort = 19
*.ES_4.app[0].source.productionInterval = 1500us
*.ES_4.app[0].source.initialProductionOffset = 1500us
*.ES_4.app[0].source.packetLength = 771B
*.ES_4.app[1].display-name = "ats-p3"
*.ES_4.app[1].io.destAddress = "ES_24"
*.ES_4.app[1].io.destPort = 20
*.ES_4.app[1].source.productionInterval = 2000us
*.ES_4.app[1].source.initialProductionOffset = 2000us
*.ES_4.app[1].source.packetLength = 524B
*.ES_4.app[2].display-name = "ats-p6"
*.ES_4.app[2].io.destAddress = "ES_30"
*.ES_4.app[2].io.destPort = 21
*.ES_4.app[2].source.productionInterval = 2000us
*.ES_4.app[2].source.initialProductionOffset = 2000us
*.ES_4.app[2].source.packetLength = 502B
*.ES_4.app[3].display-name = "ats-p1"
*.ES_4.app[3].io.destAddress = "ES_30"
*.ES_4.app[3].io.destPort = 22
*.ES_4.app[3].source.productionInterval = 2000us
*.ES_4.app[3].source.initialProductionOffset = 2000us
*.ES_4.app[3].source.packetLength = 718B
*.ES_4.app[4].display-name = "ats-p3"
*.ES_4.app[4].io.destAddress = "ES_26"
*.ES_4.app[4].io.destPort = 23
*.ES_4.app[4].source.productionInterval = 2000us
*.ES_4.app[4].source.initialProductionOffset = 2000us
*.ES_4.app[4].source.packetLength = 675B
*.ES_4.app[5].display-name = "ats-p7"
*.ES_4.app[5].io.destAddress = "ES_31"
*.ES_4.app[5].io.destPort = 24
*.ES_4.app[5].source.productionInterval = 1500us
*.ES_4.app[5].source.initialProductionOffset = 1500us
*.ES_4.app[5].source.packetLength = 541B
*.ES_4.app[6..9].typename = "UdpSinkApp"
*.ES_4.app[6].io.localPort = 45
*.ES_4.app[7].io.localPort = 128
*.ES_4.app[8].io.localPort = 164
*.ES_4.app[9].io.localPort = 165
*.ES_5.app[0..5].typename = "UdpSourceApp"
*.ES_5.app[0].display-name = "ats-p4"
*.ES_5.app[0].io.destAddress = "ES_12"
*.ES_5.app[0].io.destPort = 25
*.ES_5.app[0].source.productionInterval = 2000us
*.ES_5.app[0].source.initialProductionOffset = 2000us
*.ES_5.app[0].source.packetLength = 544B
*.ES_5.app[1].display-name = "ats-p1"
*.ES_5.app[1].io.destAddress = "ES_3"
*.ES_5.app[1].io.destPort = 26
*.ES_5.app[1].source.productionInterval = 1500us
*.ES_5.app[1].source.initialProductionOffset = 1500us
*.ES_5.app[1].source.packetLength = 625B
*.ES_5.app[2].display-name = "ats-p6"
*.ES_5.app[2].io.destAddress = "ES_27"
*.ES_5.app[2].io.destPort = 27
*.ES_5.app[2].source.productionInterval = 2000us
*.ES_5.app[2].source.initialProductionOffset = 2000us
*.ES_5.app[2].source.packetLength = 618B
*.ES_5.app[3].display-name = "ats-p4"
*.ES_5.app[3].io.destAddress = "ES_8"
*.ES_5.app[3].io.destPort = 28
*.ES_5.app[3].source.productionInterval = 2000us
*.ES_5.app[3].source.initialProductionOffset = 2000us
*.ES_5.app[3].source.packetLength = 528B
*.ES_5.app[4].display-name = "ats-p0"
*.ES_5.app[4].io.destAddress = "ES_30"
*.ES_5.app[4].io.destPort = 29
*.ES_5.app[4].source.productionInterval = 1500us
*.ES_5.app[4].source.initialProductionOffset = 1500us
*.ES_5.app[4].source.packetLength = 581B
*.ES_5.app[5].display-name = "ats-p6"
*.ES_5.app[5].io.destAddress = "ES_26"
*.ES_5.app[5].io.destPort = 30
*.ES_5.app[5].source.productionInterval = 1500us
*.ES_5.app[5].source.initialProductionOffset = 1500us
*.ES_5.app[5].source.packetLength = 580B
*.ES_5.app[6..14].typename = "UdpSinkApp"
*.ES_5.app[6].io.localPort = 46
*.ES_5.app[7].io.localPort = 63
*.ES_5.app[8].io.localPort = 83
*.ES_5.app[9].io.localPort = 89
*.ES_5.app[10].io.localPort = 106
*.ES_5.app[11].io.localPort = 130
*.ES_5.app[12].io.localPort = 154
*.ES_5.app[13].io.localPort = 192
*.ES_5.app[14].io.localPort = 216
*.ES_6.app[0..5].typename = "UdpSourceApp"
*.ES_6.app[0].display-name = "ats-p7"
*.ES_6.app[0].io.destAddress = "ES_17"
*.ES_6.app[0].io.destPort = 31
*.ES_6.app[0].source.productionInterval = 1500us
*.ES_6.app[0].source.initialProductionOffset = 1500us
*.ES_6.app[0].source.packetLength = 715B
*.ES_6.app[1].display-name = "ats-p6"
*.ES_6.app[1].io.destAddress = "ES_20"
*.ES_6.app[1].io.destPort = 32
*.ES_6.app[1].source.productionInterval = 2000us
*.ES_6.app[1].source.initialProductionOffset = 2000us
*.ES_6.app[1].source.packetLength = 676B
*.ES_6.app[2].display-name = "ats-p0"
*.ES_6.app[2].io.destAddress = "ES_12"
*.ES_6.app[2].io.destPort = 33
*.ES_6.app[2].source.productionInterval = 1500us
*.ES_6.app[2].source.initialProductionOffset = 1500us
*.ES_6.app[2].source.packetLength = 692B
*.ES_6.app[3].display-name = "ats-p7"
*.ES_6.app[3].io.destAddress = "ES_38"
*.ES_6.app[3].io.destPort = 34
*.ES_6.app[3].source.productionInterval = 2000us
*.ES_6.app[3].source.initialProductionOffset = 2000us
*.ES_6.app[3].source.packetLength = 576B
*.ES_6.app[4].display-name = "ats-p4"
*.ES_6.app[4].io.destAddress = "ES_1"
*.ES_6.app[4].io.destPort = 35
*.ES_6.app[4].source.productionInterval = 2000us
*.ES_6.app[4].source.initialProductionOffset = 2000us
*.ES_6.app[4].source.packetLength = 738B
*.ES_6.app[5].display-name = "ats-p5"
*.ES_6.app[5].io.destAddress = "ES_35"
*.ES_6.app[5].io.destPort = 36
*.ES_6.app[5].source.productionInterval = 1500us
*.ES_6.app[5].source.initialProductionOffset = 1500us
*.ES_6.app[5].source.packetLength = 683B
*.ES_6.app[6..10].typename = "UdpSinkApp"
*.ES_6.app[6].io.localPort = 7
*.ES_6.app[7].io.localPort = 52
*.ES_6.app[8].io.localPort = 181
*.ES_6.app[9].io.localPort = 225
*.ES_6.app[10].io.localPort = 231
*.ES_7.app[0..5].typename = "UdpSourceApp"
*.ES_7.app[0].display-name = "ats-p3"
*.ES_7.app[0].io.destAddress = "ES_19"
*.ES_7.app[0].io.destPort = 37
*.ES_7.app[0].source.productionInterval = 2000us
*.ES_7.app[0].source.initialProductionOffset = 2000us
*.ES_7.app[0].source.packetLength = 613B
*.ES_7.app[1].display-name = "ats-p3"
*.ES_7.app[1].io.destAddress = "ES_27"
*.ES_7.app[1].io.destPort = 38
*.ES_7.app[1].source.productionInterval = 1500us
*.ES_7.app[1].source.initialProductionOffset = 1500us
*.ES_7.app[1].source.packetLength = 760B
*.ES_7.app[2].display-name = "ats-p6"
*.ES_7.app[2].io.destAddress = "ES_20"
*.ES_7.app[2].io.destPort = 39
*.ES_7.app[2].source.productionInterval = 2000us
*.ES_7.app[2].source.initialProductionOffset = 2000us
*.ES_7.app[2].source.packetLength = 614B
*.ES_7.app[3].display-name = "ats-p5"
*.ES_7.app[3].io.destAddress = "ES_33"
*.ES_7.app[3].io.destPort = 40
*.ES_7.app[3].source.productionInterval = 1500us
*.ES_7.app[3].source.initialProductionOffset = 1500us
*.ES_7.app[3].source.packetLength = 547B
*.ES_7.app[4].display-name = "ats-p3"
*.ES_7.app[4].io.destAddress = "ES_30"
*.ES_7.app[4].io.destPort = 41
*.ES_7.app[4].source.productionInterval = 2000us
*.ES_7.app[4].source.initialProductionOffset = 2000us
*.ES_7.app[4].source.packetLength = 590B
*.ES_7.app[5].display-name = "ats-p3"
*.ES_7.app[5].io.destAddress = "ES_30"
*.ES_7.app[5].io.destPort = 42
*.ES_7.app[5].source.productionInterval = 1500us
*.ES_7.app[5].source.initialProductionOffset = 1500us
*.ES_7.app[5].source.packetLength = 640B
*.ES_7.app[6..8].typename = "UdpSinkApp"
*.ES_7.app[6].io.localPort = 126
*.ES_7.app[7].io.localPort = 163
*.ES_7.app[8].io.localPort = 179
*.ES_8.app[0..5].typename = "UdpSourceApp"
*.ES_8.app[0].display-name = "ats-p6"
*.ES_8.app[0].io.destAddress = "ES_40"
*.ES_8.app[0].io.destPort = 43
*.ES_8.app[0].source.productionInterval = 2000us
*.ES_8.app[0].source.initialProductionOffset = 2000us
*.ES_8.app[0].source.packetLength = 593B
*.ES_8.app[1].display-name = "ats-p5"
*.ES_8.app[1].io.destAddress = "ES_11"
*.ES_8.app[1].io.destPort = 44
*.ES_8.app[1].source.productionInterval = 1500us
*.ES_8.app[1].source.initialProductionOffset = 1500us
*.ES_8.app[1].source.packetLength = 506B
*.ES_8.app[2].display-name = "ats-p0"
*.ES_8.app[2].io.destAddress = "ES_4"
*.ES_8.app[2].io.destPort = 45
*.ES_8.app[2].source.productionInterval = 1500us
*.ES_8.app[2].source.initialProductionOffset = 1500us
*.ES_8.app[2].source.packetLength = 739B
*.ES_8.app[3].display-name = "ats-p3"
*.ES_8.app[3].io.destAddress = "ES_5"
*.ES_8.app[3].io.destPort = 46
*.ES_8.app[3].source.productionInterval = 2000us
*.ES_8.app[3].source.initialProductionOffset = 2000us
*.ES_8.app[3].source.packetLength = 555B
*.ES_8.app[4].display-name = "ats-p7"
*.ES_8.app[4].io.destAddress = "ES_39"
*.ES_8.app[4].io.destPort = 47
*.ES_8.app[4].source.productionInterval = 1500us
*.ES_8.app[4].source.initialProductionOffset = 1500us
*.ES_8.app[4].source.packetLength = 741B
*.ES_8.app[5].display-name = "ats-p3"
*.ES_8.app[5].io.destAddress = "ES_35"
*.ES_8.app[5].io.destPort = 48
*.ES_8.app[5].source.productionInterval = 2000us
*.ES_8.app[5].source.initialProductionOffset = 2000us
*.ES_8.app[5].source.packetLength = 585B
*.ES_8.app[6..16].typename = "UdpSinkApp"
*.ES_8.app[6].io.localPort = 28
*.ES_8.app[7].io.localPort = 66
*.ES_8.app[8].io.localPort = 73
*.ES_8.app[9].io.localPort = 86
*.ES_8.app[10].io.localPort = 87
*.ES_8.app[11].io.localPort = 143
*.ES_8.app[12].io.localPort = 146
*.ES_8.app[13].io.localPort = 167
*.ES_8.app[14].io.localPort = 184
*.ES_8.app[15].io.localPort = 185
*.ES_8.app[16].io.localPort = 218
*.ES_9.app[0..5].typename = "UdpSourceApp"
*.ES_9.app[0].display-name = "ats-p1"
*.ES_9.app[0].io.destAddress = "ES_3"
*.ES_9.app[0].io.destPort = 49
*.ES_9.app[0].source.productionInterval = 1500us
*.ES_9.app[0].source.initialProductionOffset = 1500us
*.ES_9.app[0].source.packetLength = 589B
*.ES_9.app[1].display-name = "ats-p7"
*.ES_9.app[1].io.destAddress = "ES_21"
*.ES_9.app[1].io.destPort = 50
*.ES_9.app[1].source.productionInterval = 1500us
*.ES_9.app[1].source.initialProductionOffset = 1500us
*.ES_9.app[1].source.packetLength = 746B
*.ES_9.app[2].display-name = "ats-p3"
*.ES_9.app[2].io.destAddress = "ES_30"
*.ES_9.app[2].io.destPort = 51
*.ES_9.app[2].source.productionInterval = 2000us
*.ES_9.app[2].source.initialProductionOffset = 2000us
*.ES_9.app[2].source.packetLength = 507B
*.ES_9.app[3].display-name = "ats-p6"
*.ES_9.app[3].io.destAddress = "ES_6"
*.ES_9.app[3].io.destPort = 52
*.ES_9.app[3].source.productionInterval = 1500us
*.ES_9.app[3].source.initialProductionOffset = 1500us
*.ES_9.app[3].source.packetLength = 741B
*.ES_9.app[4].display-name = "ats-p7"
*.ES_9.app[4].io.destAddress = "ES_27"
*.ES_9.app[4].io.destPort = 53
*.ES_9.app[4].source.productionInterval = 1500us
*.ES_9.app[4].source.initialProductionOffset = 1500us
*.ES_9.app[4].source.packetLength = 609B
*.ES_9.app[5].display-name = "ats-p4"
*.ES_9.app[5].io.destAddress = "ES_21"
*.ES_9.app[5].io.destPort = 54
*.ES_9.app[5].source.productionInterval = 2000us
*.ES_9.app[5].source.initialProductionOffset = 2000us
*.ES_9.app[5].source.packetLength = 656B
*.ES_9.app[6..12].typename = "UdpSinkApp"
*.ES_9.app[6].io.localPort = 69
*.ES_9.app[7].io.localPort = 75
*.ES_9.app[8].io.localPort = 105
*.ES_9.app[9].io.localPort = 148
*.ES_9.app[10].io.localPort = 150
*.ES_9.app[11].io.localPort = 156
*.ES_9.app[12].io.localPort = 159
*.ES_10.app[0..5].typename = "UdpSourceApp"
*.ES_10.app[0].display-name = "ats-p7"
*.ES_10.app[0].io.destAddress = "ES_24"
*.ES_10.app[0].io.destPort = 55
*.ES_10.app[0].source.productionInterval = 2000us
*.ES_10.app[0].source.initialProductionOffset = 2000us
*.ES_10.app[0].source.packetLength = 797B
*.ES_10.app[1].display-name = "ats-p3"
*.ES_10.app[1].io.destAddress = "ES_31"
*.ES_10.app[1].io.destPort = 56
*.ES_10.app[1].source.productionInterval = 2000us
*.ES_10.app[1].source.initialProductionOffset = 2000us
*.ES_10.app[1].source.packetLength = 659B
*.ES_10.app[2].display-name = "ats-p6"
*.ES_10.app[2].io.destAddress = "ES_13"
*.ES_10.app[2].io.destPort = 57
*.ES_10.app[2].source.productionInterval = 2000us
*.ES_10.app[2].source.initialProductionOffset = 2000us
*.ES_10.app[2].source.packetLength = 793B
*.ES_10.app[3].display-name = "ats-p3"
*.ES_10.app[3].io.destAddress = "ES_22"
*.ES_10.app[3].io.destPort = 58
*.ES_10.app[3].source.productionInterval = 1500us
*.ES_10.app[3].source.initialProductionOffset = 1500us
*.ES_10.app[3].source.packetLength = 797B
*.ES_10.app[4].display-name = "ats-p6"
*.ES_10.app[4].io.destAddress = "ES_28"
*.ES_10.app[4].io.destPort = 59
*.ES_10.app[4].source.productionInterval = 2000us
*.ES_10.app[4].source.initialProductionOffset = 2000us
*.ES_10.app[4].source.packetLength = 680B
*.ES_10.app[5].display-name = "ats-p0"
*.ES_10.app[5].io.destAddress = "ES_13"
*.ES_10.app[5].io.destPort = 60
*.ES_10.app[5].source.productionInterval = 1500us
*.ES_10.app[5].source.initialProductionOffset = 1500us
*.ES_10.app[5].source.packetLength = 714B
*.ES_10.app[6..7].typename = "UdpSinkApp"
*.ES_10.app[6].io.localPort = 102
*.ES_10.app[7].io.localPort = 197
*.ES_11.app[0..5].typename = "UdpSourceApp"
*.ES_11.app[0].display-name = "ats-p6"
*.ES_11.app[0].io.destAddress = "ES_25"
*.ES_11.app[0].io.destPort = 61
*.ES_11.app[0].source.productionInterval = 2000us
*.ES_11.app[0].source.initialProductionOffset = 2000us
*.ES_11.app[0].source.packetLength = 740B
*.ES_11.app[1].display-name = "ats-p6"
*.ES_11.app[1].io.destAddress = "ES_34"
*.ES_11.app[1].io.destPort = 62
*.ES_11.app[1].source.productionInterval = 1500us
*.ES_11.app[1].source.initialProductionOffset = 1500us
*.ES_11.app[1].source.packetLength = 637B
*.ES_11.app[2].display-name = "ats-p0"
*.ES_11.app[2].io.destAddress = "ES_5"
*.ES_11.app[2].io.destPort = 63
*.ES_11.app[2].source.productionInterval = 1500us
*.ES_11.app[2].source.initialProductionOffset = 1500us
*.ES_11.app[2].source.packetLength = 727B
*.ES_11.app[3].display-name = "ats-p7"
*.ES_11.app[3].io.destAddress = "ES_31"
*.ES_11.app[3].io.destPort = 64
*.ES_11.app[3].source.productionInterval = 2000us
*.ES_11.app[3].source.initialProductionOffset = 2000us
*.ES_11.app[3].source.packetLength = 789B
*.ES_11.app[4].display-name = "ats-p5"
*.ES_11.app[4].io.destAddress = "ES_3"
*.ES_11.app[4].io.destPort = 65
*.ES_11.app[4].source.productionInterval = 1500us
*.ES_11.app[4].source.initialProductionOffset = 1500us
*.ES_11.app[4].source.packetLength = 683B
*.ES_11.app[5].display-name = "ats-p2"
*.ES_11.app[5].io.destAddress = "ES_8"
*.ES_11.app[5].io.destPort = 66
*.ES_11.app[5].source.productionInterval = 1500us
*.ES_11.app[5].source.initialProductionOffset = 1500us
*.ES_11.app[5].source.packetLength = 757B
*.ES_11.app[6..8].typename = "UdpSinkApp"
*.ES_11.app[6].io.localPort = 44
*.ES_11.app[7].io.localPort = 140
*.ES_11.app[8].io.localPort = 228
*.ES_12.app[0..5].typename = "UdpSourceApp"
*.ES_12.app[0].display-name = "ats-p1"
*.ES_12.app[0].io.destAddress = "ES_21"
*.ES_12.app[0].io.destPort = 67
*.ES_12.app[0].source.productionInterval = 1500us
*.ES_12.app[0].source.initialProductionOffset = 1500us
*.ES_12.app[0].source.packetLength = 658B
*.ES_12.app[1].display-name = "ats-p5"
*.ES_12.app[1].io.destAddress = "ES_26"
*.ES_12.app[1].io.destPort = 68
*.ES_12.app[1].source.productionInterval = 2000us
*.ES_12.app[1].source.initialProductionOffset = 2000us
*.ES_12.app[1].source.packetLength = 604B
*.ES_12.app[2].display-name = "ats-p1"
*.ES_12.app[2].io.destAddress = "ES_9"
*.ES_12.app[2].io.destPort = 69
*.ES_12.app[2].source.productionInterval = 1500us
*.ES_12.app[2].source.initialProductionOffset = 1500us
*.ES_12.app[2].source.packetLength = 512B
*.ES_12.app[3].display-name = "ats-p2"
*.ES_12.app[3].io.destAddress = "ES_13"
*.ES_12.app[3].io.destPort = 70
*.ES_12.app[3].source.productionInterval = 1500us
*.ES_12.app[3].source.initialProductionOffset = 1500us
*.ES_12.app[3].source.packetLength = 702B
*.ES_12.app[4].display-name = "ats-p7"
*.ES_12.app[4].io.destAddress = "ES_40"
*.ES_12.app[4].io.destPort = 71
*.ES_12.app[4].source.productionInterval = 2000us
*.ES_12.app[4].source.initialProductionOffset = 2000us
*.ES_12.app[4].source.packetLength = 512B
*.ES_12.app[5].display-name = "ats-p2"
*.ES_12.app[5].io.destAddress = "ES_32"
*.ES_12.app[5].io.destPort = 72
*.ES_12.app[5].source.productionInterval = 2000us
*.ES_12.app[5].source.initialProductionOffset = 2000us
*.ES_12.app[5].source.packetLength = 706B
*.ES_12.app[6..10].typename = "UdpSinkApp"
*.ES_12.app[6].io.localPort = 25
*.ES_12.app[7].io.localPort = 33
*.ES_12.app[8].io.localPort = 137
*.ES_12.app[9].io.localPort = 142
*.ES_12.app[10].io.localPort = 186
*.ES_13.app[0..5].typename = "UdpSourceApp"
*.ES_13.app[0].display-name = "ats-p1"
*.ES_13.app[0].io.destAddress = "ES_8"
*.ES_13.app[0].io.destPort = 73
*.ES_13.app[0].source.productionInterval = 1500us
*.ES_13.app[0].source.initialProductionOffset = 1500us
*.ES_13.app[0].source.packetLength = 743B
*.ES_13.app[1].display-name = "ats-p5"
*.ES_13.app[1].io.destAddress = "ES_19"
*.ES_13.app[1].io.destPort = 74
*.ES_13.app[1].source.productionInterval = 2000us
*.ES_13.app[1].source.initialProductionOffset = 2000us
*.ES_13.app[1].source.packetLength = 701B
*.ES_13.app[2].display-name = "ats-p4"
*.ES_13.app[2].io.destAddress = "ES_9"
*.ES_13.app[2].io.destPort = 75
*.ES_13.app[2].source.productionInterval = 1500us
*.ES_13.app[2].source.initialProductionOffset = 1500us
*.ES_13.app[2].source.packetLength = 503B
*.ES_13.app[3].display-name = "ats-p4"
*.ES_13.app[3].io.destAddress = "ES_34"
*.ES_13.app[3].io.destPort = 76
*.ES_13.app[3].source.productionInterval = 2000us
*.ES_13.app[3].source.initialProductionOffset = 2000us
*.ES_13.app[3].source.packetLength = 542B
*.ES_13.app[4].display-name = "ats-p5"
*.ES_13.app[4].io.destAddress = "ES_24"
*.ES_13.app[4].io.destPort = 77
*.ES_13.app[4].source.productionInterval = 2000us
*.ES_13.app[4].source.initialProductionOffset = 2000us
*.ES_13.app[4].source.packetLength = 684B
*.ES_13.app[5].display-name = "ats-p4"
*.ES_13.app[5].io.destAddress = "ES_32"
*.ES_13.app[5].io.destPort = 78
*.ES_13.app[5].source.productionInterval = 2000us
*.ES_13.app[5].source.initialProductionOffset = 2000us
*.ES_13.app[5].source.packetLength = 695B
*.ES_13.app[6..9].typename = "UdpSinkApp"
*.ES_13.app[6].io.localPort = 17
*.ES_13.app[7].io.localPort = 57
*.ES_13.app[8].io.localPort = 60
*.ES_13.app[9].io.localPort = 70
*.ES_14.app[0..5].typename = "UdpSourceApp"
*.ES_14.app[0].display-name = "ats-p1"
*.ES_14.app[0].io.destAddress = "ES_39"
*.ES_14.app[0].io.destPort = 79
*.ES_14.app[0].source.productionInterval = 1500us
*.ES_14.app[0].source.initialProductionOffset = 1500us
*.ES_14.app[0].source.packetLength = 628B
*.ES_14.app[1].display-name = "ats-p1"
*.ES_14.app[1].io.destAddress = "ES_32"
*.ES_14.app[1].io.destPort = 80
*.ES_14.app[1].source.productionInterval = 1500us
*.ES_14.app[1].source.initialProductionOffset = 1500us
*.ES_14.app[1].source.packetLength = 729B
*.ES_14.app[2].display-name = "ats-p2"
*.ES_14.app[2].io.destAddress = "ES_3"
*.ES_14.app[2].io.destPort = 81
*.ES_14.app[2].source.productionInterval = 1500us
*.ES_14.app[2].source.initialProductionOffset = 1500us
*.ES_14.app[2].source.packetLength = 508B
*.ES_14.app[3].display-name = "ats-p5"
*.ES_14.app[3].io.destAddress = "ES_3"
*.ES_14.app[3].io.destPort = 82
*.ES_14.app[3].source.productionInterval = 1500us
*.ES_14.app[3].source.initialProductionOffset = 1500us
*.ES_14.app[3].source.packetLength = 557B
*.ES_14.app[4].display-name = "ats-p0"
*.ES_14.app[4].io.destAddress = "ES_5"
*.ES_14.app[4].io.destPort = 83
*.ES_14.app[4].source.productionInterval = 1500us
*.ES_14.app[4].source.initialProductionOffset = 1500us
*.ES_14.app[4].source.packetLength = 566B
*.ES_14.app[5].display-name = "ats-p2"
*.ES_14.app[5].io.destAddress = "ES_1"
*.ES_14.app[5].io.destPort = 84
*.ES_14.app[5].source.productionInterval = 1500us
*.ES_14.app[5].source.initialProductionOffset = 1500us
*.ES_14.app[5].source.packetLength = 648B
*.ES_14.app[6..7].typename = "UdpSinkApp"
*.ES_14.app[6].io.localPort = 109
*.ES_14.app[7].io.localPort = 161
*.ES_15.app[0..5].typename = "UdpSourceApp"
*.ES_15.app[0].display-name = "ats-p2"
*.ES_15.app[0].io.destAddress = "ES_40"
*.ES_15.app[0].io.destPort = 85
*.ES_15.app[0].source.productionInterval = 2000us
*.ES_15.app[0].source.initialProductionOffset = 2000us
*.ES_15.app[0].source.packetLength = 569B
*.ES_15.app[1].display-name = "ats-p0"
*.ES_15.app[1].io.destAddress = "ES_8"
*.ES_15.app[1].io.destPort = 86
*.ES_15.app[1].source.productionInterval = 1500us
*.ES_15.app[1].source.initialProductionOffset = 1500us
*.ES_15.app[1].source.packetLength = 553B
*.ES_15.app[2].display-name = "ats-p0"
*.ES_15.app[2].io.destAddress = "ES_8"
*.ES_15.app[2].io.destPort = 87
*.ES_15.app[2].source.productionInterval = 1500us
*.ES_15.app[2].source.initialProductionOffset = 1500us
*.ES_15.app[2].source.packetLength = 706B
*.ES_15.app[3].display-name = "ats-p7"
*.ES_15.app[3].io.destAddress = "ES_30"
*.ES_15.app[3].io.destPort = 88
*.ES_15.app[3].source.productionInterval = 2000us
*.ES_15.app[3].source.initialProductionOffset = 2000us
*.ES_15.app[3].source.packetLength = 518B
*.ES_15.app[4].display-name = "ats-p4"
*.ES_15.app[4].io.destAddress = "ES_5"
*.ES_15.app[4].io.destPort = 89
*.ES_15.app[4].source.productionInterval = 1500us
*.ES_15.app[4].source.initialProductionOffset = 1500us
*.ES_15.app[4].source.packetLength = 508B
*.ES_15.app[5].display-name = "ats-p1"
*.ES_15.app[5].io.destAddress = "ES_22"
*.ES_15.app[5].io.destPort = 90
*.ES_15.app[5].source.productionInterval = 1500us
*.ES_15.app[5].source.initialProductionOffset = 1500us
*.ES_15.app[5].source.packetLength = 753B
*.ES_15.app[6..10].typename = "UdpSinkApp"
*.ES_15.app[6].io.localPort = 13
*.ES_15.app[7].io.localPort = 122
*.ES_15.app[8].io.localPort = 136
*.ES_15.app[9].io.localPort = 217
*.ES_15.app[10].io.localPort = 233
*.ES_16.app[0..5].typename = "UdpSourceApp"
*.ES_16.app[0].display-name = "ats-p6"
*.ES_16.app[0].io.destAddress = "ES_30"
*.ES_16.app[0].io.destPort = 91
*.ES_16.app[0].source.productionInterval = 1500us
*.ES_16.app[0].source.initialProductionOffset = 1500us
*.ES_16.app[0].source.packetLength = 771B
*.ES_16.app[1].display-name = "ats-p5"
*.ES_16.app[1].io.destAddress = "ES_19"
*.ES_16.app[1].io.destPort = 92
*.ES_16.app[1].source.productionInterval = 1500us
*.ES_16.app[1].source.initialProductionOffset = 1500us
*.ES_16.app[1].source.packetLength = 746B
*.ES_16.app[2].display-name = "ats-p4"
*.ES_16.app[2].io.destAddress = "ES_2"
*.ES_16.app[2].io.destPort = 93
*.ES_16.app[2].source.productionInterval = 1500us
*.ES_16.app[2].source.initialProductionOffset = 1500us
*.ES_16.app[2].source.packetLength = 612B
*.ES_16.app[3].display-name = "ats-p6"
*.ES_16.app[3].io.destAddress = "ES_26"
*.ES_16.app[3].io.destPort = 94
*.ES_16.app[3].source.productionInterval = 1500us
*.ES_16.app[3].source.initialProductionOffset = 1500us
*.ES_16.app[3].source.packetLength = 603B
*.ES_16.app[4].display-name = "ats-p3"
*.ES_16.app[4].io.destAddress = "ES_34"
*.ES_16.app[4].io.destPort = 95
*.ES_16.app[4].source.productionInterval = 1500us
*.ES_16.app[4].source.initialProductionOffset = 1500us
*.ES_16.app[4].source.packetLength = 672B
*.ES_16.app[5].display-name = "ats-p6"
*.ES_16.app[5].io.destAddress = "ES_29"
*.ES_16.app[5].io.destPort = 96
*.ES_16.app[5].source.productionInterval = 2000us
*.ES_16.app[5].source.initialProductionOffset = 2000us
*.ES_16.app[5].source.packetLength = 792B
*.ES_16.app[6..9].typename = "UdpSinkApp"