[General]
network = tsn.TSN_Network
sim-time-limit = 0.2s

# enable multiple canvas visualizers
*.visualizer.typename = "IntegratedMultiCanvasVisualizer"

# network route activity visualization
*.visualizer.numNetworkRouteVisualizers = 1
*.visualizer.networkRouteVisualizer[*].displayRoutes = true
*.visualizer.networkRouteVisualizer[0].packetFilter = "\"ats*\""
*.visualizer.networkRouteVisualizer[0].lineColor = "red1"

*.*.eth[*].bitrate = 1Gbps

# packet processing delay
*.*.bridging.directionReverser.delayer.typename = "PacketDelayer"
*.*.bridging.directionReverser.delayer.delay = 8us

*.ES_1.numApps = 7
*.ES_2.numApps = 6
*.ES_3.numApps = 5
*.ES_4.numApps = 5
*.ES_5.numApps = 11
*.ES_6.numApps = 5
*.ES_7.numApps = 6
*.ES_8.numApps = 6
*.ES_9.numApps = 6
*.ES_10.numApps = 4
*.ES_11.numApps = 8
*.ES_12.numApps = 5
*.ES_13.numApps = 5
*.ES_14.numApps = 7
*.ES_15.numApps = 5
*.ES_16.numApps = 5
*.ES_17.numApps = 7
*.ES_18.numApps = 7
*.ES_19.numApps = 7
*.ES_20.numApps = 6
*.ES_21.numApps = 6
*.ES_22.numApps = 8
*.ES_23.numApps = 4
*.ES_24.numApps = 6
*.ES_25.numApps = 9
*.ES_26.numApps = 6
*.ES_27.numApps = 6
*.ES_28.numApps = 5
*.ES_29.numApps = 8
*.ES_30.numApps = 5
*.ES_31.numApps = 4
*.ES_32.numApps = 8
*.ES_33.numApps = 5
*.ES_34.numApps = 6
*.ES_35.numApps = 6
*.ES_36.numApps = 8
*.ES_37.numApps = 8
*.ES_38.numApps = 6
*.ES_39.numApps = 6
*.ES_40.numApps = 7
*.ES_41.numApps = 10
*.ES_42.numApps = 9
*.ES_43.numApps = 11
*.ES_44.numApps = 3
*.ES_45.numApps = 4
*.ES_46.numApps = 4
*.ES_47.numApps = 3
*.ES_48.numApps = 4
*.ES_49.numApps = 8
*.ES_50.numApps = 7
*.ES_51.numApps = 8
*.ES_52.numApps = 3
*.ES_53.numApps = 4
*.ES_54.numApps = 6
*.ES_55.numApps = 6
*.ES_56.numApps = 6
*.ES_57.numApps = 5
*.ES_58.numApps = 6
*.ES_59.numApps = 7
*.ES_60.numApps = 4
*.ES_61.numApps = 6
*.ES_62.numApps = 4
*.ES_63.numApps = 5
*.ES_64.numApps = 7
*.ES_65.numApps = 4
*.ES_66.numApps = 4
*.ES_67.numApps = 5
*.ES_68.numApps = 8
*.ES_69.numApps = 7
*.ES_70.numApps = 6
*.ES_71.numApps = 9
*.ES_72.numApps = 6
*.ES_73.numApps = 4
*.ES_74.numApps = 6
*.ES_75.numApps = 7
*.ES_76.numApps = 5
*.ES_77.numApps = 5
*.ES_78.numApps = 3
*.ES_79.numApps = 3
*.ES_80.numApps = 8
*.ES_1.app[0..2].typename = "UdpSourceApp"
*.ES_1.app[0].display-name = "ats-p1"
*.ES_1.app[0].io.destAddress = "ES_40"
*.ES_1.app[0].io.destPort = 1
*.ES_1.app[0].source.productionInterval = 500us
*.ES_1.app[0].source.initialProductionOffset = 500us
*.ES_1.app[0].source.packetLength = 709B
*.ES_1.app[1].display-name = "ats-p3"
*.ES_1.app[1].io.destAddress = "ES_43"
*.ES_1.app[1].io.destPort = 2
*.ES_1.app[1].source.productionInterval = 1000us
*.ES_1.app[1].source.initialProductionOffset = 1000us
*.ES_1.app[1].source.packetLength = 687B
*.ES_1.app[2].display-name = "ats-p0"
*.ES_1.app[2].io.destAddress = "ES_30"
*.ES_1.app[2].io.destPort = 3
*.ES_1.app[2].source.productionInterval = 500us
*.ES_1.app[2].source.initialProductionOffset = 500us
*.ES_1.app[2].source.packetLength = 511B
*.ES_1.app[3..6].typename = "UdpSinkApp"
*.ES_1.app[3].io.localPort = 136
*.ES_1.app[4].io.localPort = 181
*.ES_1.app[5].io.localPort = 197
*.ES_1.app[6].io.localPort = 214
*.ES_2.app[0..2].typename = "UdpSourceApp"
*.ES_2.app[0].display-name = "ats-p6"
*.ES_2.app[0].io.destAddress = "ES_27"
*.ES_2.app[0].io.destPort = 4
*.ES_2.app[0].source.productionInterval = 1000us
*.ES_2.app[0].source.initialProductionOffset = 1000us
*.ES_2.app[0].source.packetLength = 800B
*.ES_2.app[1].display-name = "ats-p2"
*.ES_2.app[1].io.destAddress = "ES_59"
*.ES_2.app[1].io.destPort = 5
*.ES_2.app[1].source.productionInterval = 1000us
*.ES_2.app[1].source.initialProductionOffset = 1000us
*.ES_2.app[1].source.packetLength = 791B
*.ES_2.app[2].display-name = "ats-p2"
*.ES_2.app[2].io.destAddress = "ES_29"
*.ES_2.app[2].io.destPort = 6
*.ES_2.app[2].source.productionInterval = 1000us
*.ES_2.app[2].source.initialProductionOffset = 1000us
*.ES_2.app[2].source.packetLength = 680B
*.ES_2.app[3..5].typename = "UdpSinkApp"
*.ES_2.app[3].io.localPort = 88
*.ES_2.app[4].io.localPort = 118
*.ES_2.app[5].io.localPort = 186
*.ES_3.app[0..2].typename = "UdpSourceApp"
*.ES_3.app[0].display-name = "ats-p5"
*.ES_3.app[0].io.destAddress = "ES_32"
*.ES_3.app[0].io.destPort = 7
*.ES_3.app[0].source.productionInterval = 500us
*.ES_3.app[0].source.initialProductionOffset = 500us
*.ES_3.app[0].source.packetLength = 708B
*.ES_3.app[1].display-name = "ats-p3"
*.ES_3.app[1].io.destAddress = "ES_71"
*.ES_3.app[1].io.destPort = 8
*.ES_3.app[1].source.productionInterval = 500us
*.ES_3.app[1].source.initialProductionOffset = 500us
*.ES_3.app[1].source.packetLength = 793B
*.ES_3.app[2].display-name = "ats-p4"
*.ES_3.app[2].io.destAddress = "ES_40"
*.ES_3.app[2].io.destPort = 9
*.ES_3.app[2].source.productionInterval = 1000us
*.ES_3.app[2].source.initialProductionOffset = 1000us
*.ES_3.app[2].source.packetLength = 525B
*.ES_3.app[3..4].typename = "UdpSinkApp"
*.ES_3.app[3].io.localPort = 92
*.ES_3.app[4].io.localPort = 230
*.ES_4.app[0..2].typename = "UdpSourceApp"
*.ES_4.app[0].display-name = "ats-p5"
*.ES_4.app[0].io.destAddress = "ES_66"
*.ES_4.app[0].io.destPort = 10
*.ES_4.app[0].source.productionInterval = 1000us
*.ES_4.app[0].source.initialProductionOffset = 1000us
*.ES_4.app[0].source.packetLength = 719B
*.ES_4.app[1].display-name = "ats-p1"
*.ES_4.app[1].io.destAddress = "ES_61"
*.ES_4.app[1].io.destPort = 11
*.ES_4.app[1].source.productionInterval = 500us
*.ES_4.app[1].source.initialProductionOffset = 500us
*.ES_4.app[1].source.packetLength = 766B
*.ES_4.app[2].display-name = "ats-p4"
*.ES_4.app[2].io.destAddress = "ES_22"
*.ES_4.app[2].io.destPort = 12
*.ES_4.app[2].source.productionInterval = 1000us
*.ES_4.app[2].source.initialProductionOffset = 1000us
*.ES_4.app[2].source.packetLength = 744B
*.ES_4.app[3..4].typename = "UdpSinkApp"
*.ES_4.app[3].io.localPort = 78
*.ES_4.app[4].io.localPort = 123
*.ES_5.app[0..2].typename = "UdpSourceApp"
*.ES_5.app[0].display-name = "ats-p1"
*.ES_5.app[0].io.destAddress = "ES_25"
*.ES_5.app[0].io.destPort = 13
*.ES_5.app[0].source.productionInterval = 1000us
*.ES_5.app[0].source.initialProductionOffset = 1000us
*.ES_5.app[0].source.packetLength = 768B
*.ES_5.app[1].display-name = "ats-p4"
*.ES_5.app[1].io.destAddress = "ES_18"
*.ES_5.app[1].io.destPort = 14
*.ES_5.app[1].source.productionInterval = 1000us
*.ES_5.app[1].source.initialProductionOffset = 1000us
*.ES_5.app[1].source.packetLength = 620B
*.ES_5.app[2].display-name = "ats-p6"
*.ES_5.app[2].io.destAddress = "ES_61"
*.ES_5.app[2].io.destPort = 15
*.ES_5.app[2].source.productionInterval = 500us
*.ES_5.app[2].source.initialProductionOffset = 500us
*.ES_5.app[2].source.packetLength = 721B
*.ES_5.app[3..10].typename = "UdpSinkApp"
*.ES_5.app[3].io.localPort = 26
*.ES_5.app[4].io.localPort = 40
*.ES_5.app[5].io.localPort = 46
*.ES_5.app[6].io.localPort = 50
*.ES_5.app[7].io.localPort = 87
*.ES_5.app[8].io.localPort = 188
*.ES_5.app[9].io.localPort = 209
*.ES_5.app[10].io.localPort = 236
*.ES_6.app[0..2].typename = "UdpSourceApp"
*.ES_6.app[0].display-name = "ats-p7"
*.ES_6.app[0].io.destAddress = "ES_60"
*.ES_6.app[0].io.destPort = 16
*.ES_6.app[0].source.productionInterval = 1000us
*.ES_6.app[0].source.initialProductionOffset = 1000us
*.ES_6.app[0].source.packetLength = 635B
*.ES_6.app[1].display-name = "ats-p3"
*.ES_6.app[1].io.destAddress = "ES_36"
*.ES_6.app[1].io.destPort = 17
*.ES_6.app[1].source.productionInterval = 1000us
*.ES_6.app[1].source.initialProductionOffset = 1000us
*.ES_6.app[1].source.packetLength = 694B
*.ES_6.app[2].display-name = "ats-p7"
*.ES_6.app[2].io.destAddress = "ES_72"
*.ES_6.app[2].io.destPort = 18
*.ES_6.app[2].source.productionInterval = 500us
*.ES_6.app[2].source.initialProductionOffset = 500us
*.ES_6.app[2].source.packetLength = 647B
*.ES_6.app[3..4].typename = "UdpSinkApp"
*.ES_6.app[3].io.localPort = 135
*.ES_6.app[4].io.localPort = 156
*.ES_7.app[0..2].typename = "UdpSourceApp"
*.ES_7.app[0].display-name = "ats-p0"
*.ES_7.app[0].io.destAddress = "ES_41"
*.ES_7.app[0].io.destPort = 19
*.ES_7.app[0].source.productionInterval = 1000us
*.ES_7.app[0].source.initialProductionOffset = 1000us
*.ES_7.app[0].source.packetLength = 762B
*.ES_7.app[1].display-name = "ats-p4"
*.ES_7.app[1].io.destAddress = "ES_8"
*.ES_7.app[1].io.destPort = 20
*.ES_7.app[1].source.productionInterval = 1000us
*.ES_7.app[1].source.initialProductionOffset = 1000us
*.ES_7.app[1].source.packetLength = 636B
*.ES_7.app[2].display-name = "ats-p2"
*.ES_7.app[2].io.destAddress = "ES_69"
*.ES_7.app[2].io.destPort = 21
*.ES_7.app[2].source.productionInterval = 1000us
*.ES_7.app[2].source.initialProductionOffset = 1000us
*.ES_7.app[2].source.packetLength = 632B
*.ES_7.app[3..5].typename = "UdpSinkApp"
*.ES_7.app[3].io.localPort = 34
*.ES_7.app[4].io.localPort = 81
*.ES_7.app[5].io.localPort = 133
*.ES_8.app[0..2].typename = "UdpSourceApp"
*.ES_8.app[0].display-name = "ats-p1"
*.ES_8.app[0].io.destAddress = "ES_43"
*.ES_8.app[0].io.destPort = 22
*.ES_8.app[0].source.productionInterval = 500us
*.ES_8.app[0].source.initialProductionOffset = 500us
*.ES_8.app[0].source.packetLength = 756B
*.ES_8.app[1].display-name = "ats-p7"
*.ES_8.app[1].io.destAddress = "ES_18"
*.ES_8.app[1].io.destPort = 23
*.ES_8.app[1].source.productionInterval = 500us
*.ES_8.app[1].source.initialProductionOffset = 500us
*.ES_8.app[1].source.packetLength = 791B
*.ES_8.app[2].display-name = "ats-p1"
*.ES_8.app[2].io.destAddress = "ES_14"
*.ES_8.app[2].io.destPort = 24
*.ES_8.app[2].source.productionInterval = 1000us
*.ES_8.app[2].source.initialProductionOffset = 1000us
*.ES_8.app[2].source.packetLength = 706B
*.ES_8.app[3..5].typename = "UdpSinkApp"
*.ES_8.app[3].io.localPort = 20
*.ES_8.app[4].io.localPort = 171
*.ES_8.app[5].io.localPort = 235
*.ES_9.app[0..2].typename = "UdpSourceApp"
*.ES_9.app[0].display-name = "ats-p4"
*.ES_9.app[0].io.destAddress = "ES_50"
*.ES_9.app[0].io.destPort = 25
*.ES_9.app[0].source.productionInterval = 500us
*.ES_9.app[0].source.initialProductionOffset = 500us
*.ES_9.app[0].source.packetLength = 615B
*.ES_9.app[1].display-name = "ats-p6"
*.ES_9.app[1].io.destAddress = "ES_5"
*.ES_9.app[1].io.destPort = 26
*.ES_9.app[1].source.productionInterval = 1000us
*.ES_9.app[1].source.initialProductionOffset = 1000us
*.ES_9.app[1].source.packetLength = 689B
*.ES_9.app[2].display-name = "ats-p6"
*.ES_9.app[2].io.destAddress = "ES_75"
*.ES_9.app[2].io.destPort = 27
*.ES_9.app[2].source.productionInterval = 500us
*.ES_9.app[2].source.initialProductionOffset = 500us
*.ES_9.app[2].source.packetLength = 644B
*.ES_9.app[3..5].typename = "UdpSinkApp"
*.ES_9.app[3].io.localPort = 66
*.ES_9.app[4].io.localPort = 93
*.ES_9.app[5].io.localPort = 195
*.ES_10.app[0..2].typename = "UdpSourceApp"
*.ES_10.app[0].display-name = "ats-p0"
*.ES_10.app[0].io.destAddress = "ES_38"
*.ES_10.app[0].io.destPort = 28
*.ES_10.app[0].source.productionInterval = 500us
*.ES_10.app[0].source.initialProductionOffset = 500us
*.ES_10.app[0].source.packetLength = 602B
*.ES_10.app[1].display-name = "ats-p0"
*.ES_10.app[1].io.destAddress = "ES_55"
*.ES_10.app[1].io.destPort = 29
*.ES_10.app[1].source.productionInterval = 1000us
*.ES_10.app[1].source.initialProductionOffset = 1000us
*.ES_10.app[1].source.packetLength = 670B
*.ES_10.app[2].display-name = "ats-p3"
*.ES_10.app[2].io.destAddress = "ES_22"
*.ES_10.app[2].io.destPort = 30
*.ES_10.app[2].source.productionInterval = 1000us
*.ES_10.app[2].source.initialProductionOffset = 1000us
*.ES_10.app[2].source.packetLength = 545B
*.ES_10.app[3].typename = "UdpSinkApp"
*.ES_10.app[3].io.localPort = 80
*.ES_11.app[0..2].typename = "UdpSourceApp"
*.ES_11.app[0].display-name = "ats-p1"
*.ES_11.app[0].io.destAddress = "ES_34"
*.ES_11.app[0].io.destPort = 31
*.ES_11.app[0].source.productionInterval = 500us
*.ES_11.app[0].source.initialProductionOffset = 500us
*.ES_11.app[0].source.packetLength = 558B
*.ES_11.app[1].display-name = "ats-p3"
*.ES_11.app[1].io.destAddress = "ES_21"
*.ES_11.app[1].io.destPort = 32
*.ES_11.app[1].source.productionInterval = 500us
*.ES_11.app[1].source.initialProductionOffset = 500us
*.ES_11.app[1].source.packetLength = 758B
*.ES_11.app[2].display-name = "ats-p6"
*.ES_11.app[2].io.destAddress = "ES_49"
*.ES_11.app[2].io.destPort = 33
*.ES_11.app[2].source.productionInterval = 1000us
*.ES_11.app[2].source.initialProductionOffset = 1000us
*.ES_11.app[2].source.packetLength = 575B
*.ES_11.app[3..7].typename = "UdpSinkApp"
*.ES_11.app[3].io.localPort = 121
*.ES_11.app[4].io.localPort = 142
*.ES_11.app[5].io.localPort = 164
*.ES_11.app[6].io.localPort = 182
*.ES_11.app[7].io.localPort = 224
*.ES_12.app[0..2].typename = "UdpSourceApp"
*.ES_12.app[0].display-name = "ats-p0"
*.ES_12.app[0].io.destAddress = "ES_7"
*.ES_12.app[0].io.destPort = 34
*.ES_12.app[0].source.productionInterval = 500us
*.ES_12.app[0].source.initialProductionOffset = 500us
*.ES_12.app[0].source.packetLength = 568B
*.ES_12.app[1].display-name = "ats-p3"
*.ES_12.app[1].io.destAddress = "ES_42"
*.ES_12.app[1].io.destPort = 35
*.ES_12.app[1].source.productionInterval = 500us
*.ES_12.app[1].source.initialProductionOffset = 500us
*.ES_12.app[1].source.packetLength = 751B
*.ES_12.app[2].display-name = "ats-p4"
*.ES_12.app[2].io.destAddress = "ES_42"
*.ES_12.app[2].io.destPort = 36
*.ES_12.app[2].source.productionInterval = 500us
*.ES_12.app[2].source.initialProductionOffset = 500us
*.ES_12.app[2].source.packetLength = 613B
*.ES_12.app[3..4].typename = "UdpSinkApp"
*.ES_12.app[3].io.localPort = 143
*.ES_12.app[4].io.localPort = 229
*.ES_13.app[0..2].typename = "UdpSourceApp"
*.ES_13.app[0].display-name = "ats-p6"
*.ES_13.app[0].io.destAddress = "ES_71"
*.ES_13.app[0].io.destPort = 37
*.ES_13.app[0].source.productionInterval = 500us
*.ES_13.app[0].source.initialProductionOffset = 500us
*.ES_13.app[0].source.packetLength = 540B
*.ES_13.app[1].display-name = "ats-p1"
*.ES_13.app[1].io.destAddress = "ES_80"
*.ES_13.app[1].io.destPort = 38
*.ES_13.app[1].source.productionInterval = 1000us
*.ES_13.app[1].source.initialProductionOffset = 1000us
*.ES_13.app[1].source.packetLength = 765B
*.ES_13.app[2].display-name = "ats-p2"
*.ES_13.app[2].io.destAddress = "ES_56"
*.ES_13.app[2].io.destPort = 39
*.ES_13.app[2].source.productionInterval = 500us
*.ES_13.app[2].source.initialProductionOffset = 500us
*.ES_13.app[2].source.packetLength = 570B
*.ES_13.app[3..4].typename = "UdpSinkApp"
*.ES_13.app[3].io.localPort = 165
*.ES_13.app[4].io.localPort = 237
*.ES_14.app[0..2].typename = "UdpSourceApp"
*.ES_14.app[0].display-name = "ats-p4"
*.ES_14.app[0].io.destAddress = "ES_5"
*.ES_14.app[0].io.destPort = 40
*.ES_14.app[0].source.productionInterval = 1000us
*.ES_14.app[0].source.initialProductionOffset = 1000us
*.ES_14.app[0].source.packetLength = 725B
*.ES_14.app[1].display-name = "ats-p2"
*.ES_14.app[1].io.destAddress = "ES_19"
*.ES_14.app[1].io.destPort = 41
*.ES_14.app[1].source.productionInterval = 500us
*.ES_14.app[1].source.initialProductionOffset = 500us
*.ES_14.app[1].source.packetLength = 583B
*.ES_14.app[2].display-name = "ats-p7"
*.ES_14.app[2].io.destAddress = "ES_16"
*.ES_14.app[2].io.destPort = 42
*.ES_14.app[2].source.productionInterval = 500us
*.ES_14.app[2].source.initialProductionOffset = 500us
*.ES_14.app[2].source.packetLength = 768B
*.ES_14.app[3..6].typename = "UdpSinkApp"
*.ES_14.app[3].io.localPort = 24
*.ES_14.app[4].io.localPort = 51
*.ES_14.app[5].io.localPort = 82
*.ES_14.app[6].io.localPort = 228
*.ES_15.app[0..2].typename = "UdpSourceApp"
*.ES_15.app[0].display-name = "ats-p5"
*.ES_15.app[0].io.destAddress = "ES_69"
*.ES_15.app[0].io.destPort = 43
*.ES_15.app[0].source.productionInterval = 1000us
*.ES_15.app[0].source.initialProductionOffset = 1000us
*.ES_15.app[0].source.packetLength = 536B
*.ES_15.app[1].display-name = "ats-p1"
*.ES_15.app[1].io.destAddress = "ES_19"
*.ES_15.app[1].io.destPort = 44
*.ES_15.app[1].source.productionInterval = 1000us
*.ES_15.app[1].source.initialProductionOffset = 1000us
*.ES_15.app[1].source.packetLength = 660B
*.ES_15.app[2].display-name = "ats-p5"
*.ES_15.app[2].io.destAddress = "ES_34"
*.ES_15.app[2].io.destPort = 45
*.ES_15.app[2].source.productionInterval = 1000us
*.ES_15.app[2].source.initialProductionOffset = 1000us
*.ES_15.app[2].source.packetLength = 767B
*.ES_15.app[3..4].typename = "UdpSinkApp"
*.ES_15.app[3].io.localPort = 169
*.ES_15.app[4].io.localPort = 193
*.ES_16.app[0..2].typename = "UdpSourceApp"
*.ES_16.app[0].display-name = "ats-p2"
*.ES_16.app[0].io.destAddress = "ES_5"
*.ES_16.app[0].io.destPort = 46
*.ES_16.app[0].source.productionInterval = 500us
*.ES_16.app[0].source.initialProductionOffset = 500us
*.ES_16.app[0].source.packetLength = 632B
*.ES_16.app[1].display-name = "ats-p2"
*.ES_16.app[1].io.destAddress = "ES_42"
*.ES_16.app[1].io.destPort = 47
*.ES_16.app[1].source.productionInterval = 1000us
*.ES_16.app[1].source.initialProductionOffset = 1000us
*.ES_16.app[1].source.packetLength = 689B
*.ES_16.app[2].display-name = "ats-p7"
*.ES_16.app[2].io.destAddress = "ES_58"
*.ES_16.app[2].io.destPort = 48
*.ES_16.app[2].source.productionInterval = 500us
*.ES_16.app[2].source.initialProductionOffset = 500us
*.ES_16.app[2].source.packetLength = 600B
*.ES_16.app[3..4].typename = "UdpSinkApp"
*.ES_16.app[3].io.localPort = 42
*.ES_16.app[4].io.localPort = 117
*.ES_17.app[0..2].typename = "UdpSourceApp"
*.ES_17.app[0].display-name = "ats-p6"
*.ES_17.app[0].io.destAddress = "ES_51"
*.ES_17.app[0].io.destPort = 49
*.ES_17.app[0].source.productionInterval = 1000us
*.ES_17.app[0].source.initialProductionOffset = 1000us
*.ES_17.app[0].source.packetLength = 710B
*.ES_17.app[1].display-name = "ats-p7"
*.ES_17.app[1].io.destAddress = "ES_5"
*.ES_17.app[1].io.destPort = 50
*.ES_17.app[1].source.productionInterval = 500us
*.ES_17.app[1].source.initialProductionOffset = 500us
*.ES_17.app[1].source.packetLength = 785B
*.ES_17.app[2].display-name = "ats-p3"
*.ES_17.app[2].io.destAddress = "ES_14"
*.ES_17.app[2].io.destPort = 51
*.ES_17.app[2].source.productionInterval = 500us
*.ES_17.app[2].source.initialProductionOffset = 500us
*.ES_17.app[2].source.packetLength = 612B
*.ES_17.app[3..6].typename = "UdpSinkApp"
*.ES_17.app[3].io.localPort = 122
*.ES_17.app[4].io.localPort = 160
*.ES_17.app[5].io.localPort = 175
*.ES_17.app[6].io.localPort = 210
*.ES_18.app[0..2].typename = "UdpSourceApp"
*.ES_18.app[0].display-name = "ats-p4"
*.ES_18.app[0].io.destAddress = "ES_26"
*.ES_18.app[0].io.destPort = 52
*.ES_18.app[0].source.productionInterval = 1000us
*.ES_18.app[0].source.initialProductionOffset = 1000us
*.ES_18.app[0].source.packetLength = 758B
*.ES_18.app[1].display-name = "ats-p3"
*.ES_18.app[1].io.destAddress = "ES_62"
*.ES_18.app[1].io.destPort = 53
*.ES_18.app[1].source.productionInterval = 500us
*.ES_18.app[1].source.initialProductionOffset = 500us
*.ES_18.app[1].source.packetLength = 753B
*.ES_18.app[2].display-name = "ats-p2"
*.ES_18.app[2].io.destAddress = "ES_23"
*.ES_18.app[2].io.destPort = 54
*.ES_18.app[2].source.productionInterval = 1000us
*.ES_18.app[2].source.initialProductionOffset = 1000us
*.ES_18.app[2].source.packetLength = 521B
*.ES_18.app[3..6].typename = "UdpSinkApp"
*.ES_18.app[3].io.localPort = 14
*.ES_18.app[4].io.localPort = 23
*.ES_18.app[5].io.localPort = 68
*.ES_18.app[6].io.localPort = 161
*.ES_19.app[0..2].typename = "UdpSourceApp"
*.ES_19.app[0].display-name = "ats-p5"
*.ES_19.app[0].io.destAddress = "ES_48"
*.ES_19.app[0].io.destPort = 55
*.ES_19.app[0].source.productionInterval = 500us
*.ES_19.app[0].source.initialProductionOffset = 500us
*.ES_19.app[0].source.packetLength = 654B
*.ES_19.app[1].display-name = "ats-p3"
*.ES_19.app[1].io.destAddress = "ES_67"
*.ES_19.app[1].io.destPort = 56
*.ES_19.app[1].source.productionInterval = 1000us
*.ES_19.app[1].source.initialProductionOffset = 1000us
*.ES_19.app[1].source.packetLength = 524B
*.ES_19.app[2].display-name = "ats-p0"
*.ES_19.app[2].io.destAddress = "ES_38"
*.ES_19.app[2].io.destPort = 57
*.ES_19.app[2].source.productionInterval = 1000us
*.ES_19.app[2].source.initialProductionOffset = 1000us
*.ES_19.app[2].source.packetLength = 586B
*.ES_19.app[3..6].typename = "UdpSinkApp"
*.ES_19.app[3].io.localPort = 41
*.ES_19.app[4].io.localPort = 44
*.ES_19.app[5].io.localPort = 69
*.ES_19.app[6].io.localPort = 205
*.ES_20.app[0..2].typename = "UdpSourceApp"
*.ES_20.app[0].display-name = "ats-p5"
*.ES_20.app[0].io.destAddress = "ES_27"
*.ES_20.app[0].io.destPort = 58
*.ES_20.app[0].source.productionInterval = 1000us
*.ES_20.app[0].source.initialProductionOffset = 1000us
*.ES_20.app[0].source.packetLength = 597B
*.ES_20.app[1].display-name = "ats-p0"
*.ES_20.app[1].io.destAddress = "ES_33"
*.ES_20.app[1].io.destPort = 59
*.ES_20.app[1].source.productionInterval = 1000us
*.ES_20.app[1].source.initialProductionOffset = 1000us
*.ES_20.app[1].source.packetLength = 739B
*.ES_20.app[2].display-name = "ats-p1"
*.ES_20.app[2].io.destAddress = "ES_70"
*.ES_20.app[2].io.destPort = 60
*.ES_20.app[2].source.productionInterval = 500us
*.ES_20.app[2].source.initialProductionOffset = 500us
*.ES_20.app[2].source.packetLength = 684B
*.ES_20.app[3..5].typename = "UdpSinkApp"
*.ES_20.app[3].io.localPort = 90
*.ES_20.app[4].io.localPort = 132
*.ES_20.app[5].io.localPort = 174
*.ES_21.app[0..2].typename = "UdpSourceApp"
*.ES_21.app[0].display-name = "ats-p7"
*.ES_21.app[0].io.destAddress = "ES_39"
*.ES_21.app[0].io.destPort = 61
*.ES_21.app[0].source.productionInterval = 1000us
*.ES_21.app[0].source.initialProductionOffset = 1000us
*.ES_21.app[0].source.packetLength = 582B
*.ES_21.app[1].display-name = "ats-p2"
*.ES_21.app[1].io.destAddress = "ES_43"
*.ES_21.app[1].io.destPort = 62
*.ES_21.app[1].source.productionInterval = 500us
*.ES_21.app[1].source.initialProductionOffset = 500us
*.ES_21.app[1].source.packetLength = 631B
*.ES_21.app[2].display-name = "ats-p1"
*.ES_21.app[2].io.destAddress = "ES_71"
*.ES_21.app[2].io.destPort = 63
*.ES_21.app[2].source.productionInterval = 500us
*.ES_21.app[2].source.initialProductionOffset = 500us
*.ES_21.app[2].source.packetLength = 652B
*.ES_21.app[3..5].typename = "UdpSinkApp"
*.ES_21.app[3].io.localPort = 32
*.ES_21.app[4].io.localPort = 99
*.ES_21.app[5].io.localPort = 104
*.ES_22.app[0..2].typename = "UdpSourceApp"
*.ES_22.app[0].display-name = "ats-p2"
*.ES_22.app[0].io.destAddress = "ES_56"
*.ES_22.app[0].io.destPort = 64
*.ES_22.app[0].source.productionInterval = 500us
*.ES_22.app[0].source.initialProductionOffset = 500us
*.ES_22.app[0].source.packetLength = 784B
*.ES_22.app[1].display-name = "ats-p6"
*.ES_22.app[1].io.destAddress = "ES_41"
*.ES_22.app[1].io.destPort = 65
*.ES_22.app[1].source.productionInterval = 1000us
*.ES_22.app[1].source.initialProductionOffset = 1000us
*.ES_22.app[1].source.packetLength = 546B
*.ES_22.app[2].display-name = "ats-p0"
*.ES_22.app[2].io.destAddress = "ES_9"
*.ES_22.app[2].io.destPort = 66
*.ES_22.app[2].source.productionInterval = 1000us
*.ES_22.app[2].source.initialProductionOffset = 1000us
*.ES_22.app[2].source.packetLength = 548B
*.ES_22.app[3..7].typename = "UdpSinkApp"
*.ES_22.app[3].io.localPort = 12
*.ES_22.app[4].io.localPort = 30
*.ES_22.app[5].io.localPort = 102
*.ES_22.app[6].io.localPort = 201
*.ES_22.app[7].io.localPort = 240
*.ES_23.app[0..2].typename = "UdpSourceApp"
*.ES_23.app[0].display-name = "ats-p0"
*.ES_23.app[0].io.destAddress = "ES_64"
*.ES_23.app[0].io.destPort = 67
*.ES_23.app[0].source.productionInterval = 500us
*.ES_23.app[0].source.initialProductionOffset = 500us
*.ES_23.app[0].source.packetLength = 721B
*.ES_23.app[1].display-name = "ats-p5"
*.ES_23.app[1].io.destAddress = "ES_18"
*.ES_23.app[1].io.destPort = 68
*.ES_23.app[1].source.productionInterval = 1000us
*.ES_23.app[1].source.initialProductionOffset = 1000us
*.ES_23.app[1].source.packetLength = 564B
*.ES_23.app[2].display-name = "ats-p1"
*.ES_23.app[2].io.destAddress = "ES_19"
*.ES_23.app[2].io.destPort = 69
*.ES_23.app[2].source.productionInterval = 1000us
*.ES_23.app[2].source.initialProductionOffset = 1000us
*.ES_23.app[2].source.packetLength = 758B
*.ES_23.app[3].typename = "UdpSinkApp"
*.ES_23.app[3].io.localPort = 54
*.ES_24.app[0..2].typename = "UdpSourceApp"
*.ES_24.app[0].display-name = "ats-p0"
*.ES_24.app[0].io.destAddress = "ES_42"
*.ES_24.app[0].io.destPort = 70
*.ES_24.app[0].source.productionInterval = 500us
*.ES_24.app[0].source.initialProductionOffset = 500us
*.ES_24.app[0].source.packetLength = 547B
*.ES_24.app[1].display-name = "ats-p6"
*.ES_24.app[1].io.destAddress = "ES_57"
*.ES_24.app[1].io.destPort = 71
*.ES_24.app[1].source.productionInterval = 1000us
*.ES_24.app[1].source.initialProductionOffset = 1000us
*.ES_24.app[1].source.packetLength = 762B
*.ES_24.app[2].display-name = "ats-p5"
*.ES_24.app[2].io.destAddress = "ES_56"
*.ES_24.app[2].io.destPort = 72
*.ES_24.app[2].source.productionInterval = 1000us
*.ES_24.app[2].source.initialProductionOffset = 1000us
*.ES_24.app[2].source.packetLength = 763B
*.ES_24.app[3..5].typename = "UdpSinkApp"
*.ES_24.app[3].io.localPort = 96
*.ES_24.app[4].io.localPort = 176
*.ES_24.app[5].io.localPort = 215
*.ES_25.app[0..2].typename = "UdpSourceApp"
*.ES_25.app[0].display-name = "ats-p1"
*.ES_25.app[0].io.destAddress = "ES_34"
*.ES_25.app[0].io.destPort = 73
*.ES_25.app[0].source.productionInterval = 1000us
*.ES_25.app[0].source.initialProductionOffset = 1000us
*.ES_25.app[0].source.packetLength = 686B
*.ES_25.app[1].display-name = "ats-p6"
*.ES_25.app[1].io.destAddress = "ES_35"
*.ES_25.app[1].io.destPort = 74
*.ES_25.app[1].source.productionInterval = 1000us
*.ES_25.app[1].source.initialProductionOffset = 1000us
*.ES_25.app[1].source.packetLength = 756B
*.ES_25.app[2].display-name = "ats-p3"
*.ES_25.app[2].io.destAddress = "ES_41"
*.ES_25.app[2].io.destPort = 75
*.ES_25.app[2].source.productionInterval = 1000us
*.ES_25.app[2].source.initialProductionOffset = 1000us
*.ES_25.app[2].source.packetLength = 588B
*.ES_25.app[3..8].typename = "UdpSinkApp"
*.ES_25.app[3].io.localPort = 13
*.ES_25.app[4].io.localPort = 95
*.ES_25.app[5].io.localPort = 101
*.ES_25.app[6].io.localPort = 177
*.ES_25.app[7].io.localPort = 185
*.ES_25.app[8].io.localPort = 208
*.ES_26.app[0..2].typename = "UdpSourceApp"
*.ES_26.app[0].display-name = "ats-p1"
*.ES_26.app[0].io.destAddress = "ES_37"
*.ES_26.app[0].io.destPort = 76
*.ES_26.app[0].source.productionInterval = 1000us
*.ES_26.app[0].source.initialProductionOffset = 1000us
*.ES_26.app[0].source.packetLength = 500B
*.ES_26.app[1].display-name = "ats-p3"
*.ES_26.app[1].io.destAddress = "ES_64"
*.ES_26.app[1].io.destPort = 77
*.ES_26.app[1].source.productionInterval = 500us
*.ES_26.app[1].source.initialProductionOffset = 500us
*.ES_26.app[1].source.packetLength = 647B
*.ES_26.app[2].display-name = "ats-p0"
*.ES_26.app[2].io.destAddress = "ES_4"
*.ES_26.app[2].io.destPort = 78
*.ES_26.app[2].source.productionInterval = 500us
*.ES_26.app[2].source.initialProductionOffset = 500us
*.ES_26.app[2].source.packetLength = 540B
*.ES_26.app[3..5].typename = "UdpSinkApp"
*.ES_26.app[3].io.localPort = 52
*.ES_26.app[4].io.localPort = 200
*.ES_26.app[5].io.localPort = 206
*.ES_27.app[0..2].typename = "UdpSourceApp"
*.ES_27.app[0].display-name = "ats-p6"
*.ES_27.app[0].io.destAddress = "ES_36"
*.ES_27.app[0].io.destPort = 79
*.ES_27.app[0].source.productionInterval = 500us
*.ES_27.app[0].source.initialProductionOffset = 500us
*.ES_27.app[0].source.packetLength = 506B
*.ES_27.app[1].display-name = "ats-p4"
*.ES_27.app[1].io.destAddress = "ES_10"
*.ES_27.app[1].io.destPort = 80
*.ES_27.app[1].source.productionInterval = 1000us
*.ES_27.app[1].source.initialProductionOffset = 1000us
*.ES_27.app[1].source.packetLength = 746B
*.ES_27.app[2].display-name = "ats-p0"
*.ES_27.app[2].io.destAddress = "ES_7"
*.ES_27.app[2].io.destPort = 81
*.ES_27.app[2].source.productionInterval = 500us
*.ES_27.app[2].source.initialProductionOffset = 500us
*.ES_27.app[2].source.packetLength = 764B
*.ES_27.app[3..5].typename = "UdpSinkApp"
*.ES_27.app[3].io.localPort = 4
*.ES_27.app[4].io.localPort = 58
*.ES_27.app[5].io.localPort = 226
*.ES_28.app[0..2].typename = "UdpSourceApp"
*.ES_28.app[0].display-name = "ats-p5"
*.ES_28.app[0].io.destAddress = "ES_14"
*.ES_28.app[0].io.destPort = 82
*.ES_28.app[0].source.productionInterval = 1000us
*.ES_28.app[0].source.initialProductionOffset = 1000us
*.ES_28.app[0].source.packetLength = 637B
*.ES_28.app[1].display-name = "ats-p7"
*.ES_28.app[1].io.destAddress = "ES_29"
*.ES_28.app[1].io.destPort = 83
*.ES_28.app[1].source.productionInterval = 1000us
*.ES_28.app[1].source.initialProductionOffset = 1000us
*.ES_28.app[1].source.packetLength = 622B
*.ES_28.app[2].display-name = "ats-p6"
*.ES_28.app[2].io.destAddress = "ES_51"
*.ES_28.app[2].io.destPort = 84
*.ES_28.app[2].source.productionInterval = 1000us
*.ES_28.app[2].source.initialProductionOffset = 1000us
*.ES_28.app[2].source.packetLength = 567B
*.ES_28.app[3..4].typename = "UdpSinkApp"
*.ES_28.app[3].io.localPort = 172
*.ES_28.app[4].io.localPort = 239
*.ES_29.app[0..2].typename = "UdpSourceApp"
*.ES_29.app[0].display-name = "ats-p5"
*.ES_29.app[0].io.destAddress = "ES_80"
*.ES_29.app[0].io.destPort = 85
*.ES_29.app[0].source.productionInterval = 1000us
*.ES_29.app[0].source.initialProductionOffset = 1000us
*.ES_29.app[0].source.packetLength = 767B
*.ES_29.app[1].display-name = "ats-p0"
*.ES_29.app[1].io.destAddress = "ES_43"
*.ES_29.app[1].io.destPort = 86
*.ES_29.app[1].source.productionInterval = 1000us
*.ES_29.app[1].source.initialProductionOffset = 1000us
*.ES_29.app[1].source.packetLength = 668B
*.ES_29.app[2].display-name = "ats-p0"
*.ES_29.app[2].io.destAddress = "ES_5"
*.ES_29.app[2].io.destPort = 87
*.ES_29.app[2].source.productionInterval = 500us
*.ES_29.app[2].source.initialProductionOffset = 500us
*.ES_29.app[2].source.packetLength = 539B
*.ES_29.app[3..7].typename = "UdpSinkApp"
*.ES_29.app[3].io.localPort = 6
*.ES_29.app[4].io.localPort = 83
*.ES_29.app[5].io.localPort = 191
*.ES_29.app[6].io.localPort = 211
*.ES_29.app[7].io.localPort = 221